<?xml version="1.0" encoding="UTF-8"?>

<!-- generated on Fri Mar 15 13:14:59 2019 by Eclipse SUMO polyconvert Version 1.1.0
<configuration xmlns:xsi="http://www.w3.org/2001/XMLSchema-instance" xsi:noNamespaceSchemaLocation="http://sumo.dlr.de/xsd/polyconvertConfiguration.xsd">

    <input>
        <net-file value="osm.net.xml"/>
        <osm-files value="osm_bbox.osm.xml"/>
        <osm.keep-full-type value="true"/>
        <type-file value="/usr/share/sumo/data/typemap/osmPolyconvert.typ.xml"/>
    </input>

    <output>
        <output-file value="osm.poly.xml"/>
    </output>

    <processing>
        <poi-layer-offset value="5"/>
    </processing>

    <report>
        <verbose value="true"/>
    </report>

</configuration>
-->

<additional xmlns:xsi="http://www.w3.org/2001/XMLSchema-instance" xsi:noNamespaceSchemaLocation="http://sumo.dlr.de/xsd/additional_file.xsd">
    <location netOffset="-691366.11,-4966757.05" convBoundary="-783.37,-1303.85,1703.00,1783.20" origBoundary="-0.589224,44.816680,-0.557386,44.844501" projParameter="+proj=utm +zone=30 +ellps=WGS84 +datum=WGS84 +units=m +no_defs"/>

    <poly id="116001131" type="building.yes" color="255,230,230" fill="1" layer="-1.00" shape="386.794840,310.504026 395.124303,308.173347 397.656397,317.432764 392.382303,318.920753 386.794840,310.504026"/>
    <poly id="116001504" type="building.yes" color="255,230,230" fill="1" layer="-1.00" shape="409.477288,323.233866 409.652517,323.194627 404.578289,305.542716 414.040519,302.901227 418.367184,318.562860 418.465963,318.699232 418.590328,319.303340 419.119524,321.187037 419.597702,322.924672 421.666119,330.224532 412.245379,333.067378 410.229299,325.869150 409.477288,323.233866"/>
    <poly id="116001610" type="building.yes" color="255,230,230" fill="1" layer="-1.00" shape="414.040519,302.901227 433.246980,297.448820 435.408101,298.202723 436.357512,300.321344 435.464921,307.688406 434.655813,314.379741 420.519697,318.015650 418.367184,318.562860 414.040519,302.901227"/>
    <poly id="116001810" type="building.yes" color="255,230,230" fill="1" layer="-1.00" shape="400.967605,331.863267 394.924466,322.810290 398.834251,321.704050 397.656397,317.432764 395.124303,308.173347 404.578289,305.542716 409.652517,323.194627 409.477288,323.233866 407.554345,323.776818 406.924044,321.834510 401.427293,323.360314 403.249144,330.174712 400.967605,331.863267"/>
    <poly id="116016762" type="building.yes" color="255,230,230" fill="1" layer="-1.00" shape="492.156587,304.112208 492.228850,303.547330 491.614275,303.462253 492.015176,300.372202 492.629751,300.457278 492.783842,299.272215 496.897811,299.806538 496.744052,300.980493 500.173299,301.394291 503.388456,301.823929 503.534312,300.649738 507.664090,301.184541 507.510328,302.358496 508.251378,302.447353 507.850469,305.537404 507.117324,305.448783 507.036823,306.024533 502.914954,305.489967 502.987550,304.913980 499.778639,304.540121 496.343149,304.070545 496.270553,304.646532 492.156587,304.112208"/>
    <poly id="116018477" type="building.yes" color="255,230,230" fill="1" layer="-1.00" shape="567.900691,270.074604 568.253869,266.994247 568.668092,263.459860 581.800201,265.097725 581.719427,265.417743 581.482290,269.379923 581.237912,271.996560 567.900691,270.074604"/>
    <poly id="116018488" type="building.yes" color="255,230,230" fill="1" layer="-1.00" shape="517.684774,306.331651 524.707600,307.219775 532.684568,308.214255 536.475766,308.694483 535.237792,317.819039 534.127817,326.102424 537.996604,328.486219 530.743903,327.613445 526.290716,327.046723 524.697626,326.876804 515.016925,325.709110 515.492695,322.232153 516.078324,317.991310 516.956272,311.646708 517.684774,306.331651"/>
    <poly id="116018496" type="building.yes" color="255,230,230" fill="1" layer="-1.00" shape="536.475766,308.694483 540.692488,309.231906 549.031408,310.292818 553.074890,310.802834 553.421700,310.846557 552.974149,316.025471 552.623707,320.073212 543.149184,318.889402 539.910988,318.436818 535.237792,317.819039 536.475766,308.694483"/>
    <poly id="116018534" type="building.yes" color="255,230,230" fill="1" layer="-1.00" shape="581.237912,271.996560 581.482290,269.379923 586.514288,269.641553 587.224386,269.707258 587.103759,276.652653 580.938668,276.712935 581.237912,271.996560"/>
    <poly id="116018589" type="building.yes" color="255,230,230" fill="1" layer="-1.00" shape="581.482290,269.379923 581.719427,265.417743 581.800201,265.097725 582.530877,255.213073 592.212941,252.634002 592.988203,266.132687 593.108700,268.982601 593.126037,269.461211 593.142378,269.973146 587.224386,269.707258 586.514288,269.641553 581.482290,269.379923"/>
    <poly id="116018636" type="building.yes" color="255,230,230" fill="1" layer="-1.00" shape="568.668092,263.459860 568.846042,261.741828 569.068563,259.591510 569.144818,258.893330 582.530877,255.213073 581.800201,265.097725 568.668092,263.459860"/>
    <poly id="116018645" type="building.yes" color="255,230,230" fill="1" layer="-1.00" shape="611.206672,297.964627 609.580709,313.181579 609.526238,313.680278 608.755272,321.206623 607.193550,336.392141 605.487034,348.482413 572.465544,340.212536 574.093411,324.928926 572.832649,324.757813 574.089337,313.421257 575.347023,302.051377 576.744228,301.893018 578.502235,286.490997 612.248875,285.865610 611.206672,297.964627"/>
    <poly id="116018696" type="building.yes" color="255,230,230" fill="1" layer="-1.00" shape="587.103759,276.652653 587.224386,269.707258 593.142378,269.973146 593.494169,276.465694 587.103759,276.652653"/>
    <poly id="116018815" type="building.yes" color="255,230,230" fill="1" layer="-1.00" shape="567.900691,270.074604 581.237912,271.996560 580.938668,276.712935 580.867792,276.966539 566.986891,277.352075 567.008678,277.152595 567.433727,273.785308 567.900691,270.074604"/>
    <poly id="116171870" type="amenity.university" color="237,199,199" fill="1" layer="-1.00" shape="732.193508,370.417700 709.042245,374.439222 706.087965,371.637941 702.843630,370.862655 699.599627,370.076262 697.709996,371.620783 666.181293,363.706385 662.859898,362.862104 659.538835,362.006716 605.487034,348.482413 572.465544,340.212536 574.093411,324.928926 572.832649,324.757813 574.089337,313.421257 575.347023,302.051377 576.744228,301.893018 578.502235,286.490997 612.248875,285.865610 668.267398,284.705749 670.871374,284.672454 673.871252,284.628764 699.423589,284.192348 701.028581,284.229245 703.144460,284.114650 727.748573,283.638860 729.345615,313.028152 730.344265,312.969085 731.695295,339.738190 730.743412,339.820892 732.193508,370.417700"/>
    <poly id="155687720" type="building.yes" color="255,230,230" fill="1" layer="-1.00" shape="353.290789,261.683278 354.841394,249.499366 362.169595,250.496491 361.852836,253.155443 363.430469,253.313740 363.073901,257.305708 362.974949,257.969856 360.764938,257.792674 360.312738,262.337706 355.263657,261.853376 353.290789,261.683278"/>
    <poly id="155687748" type="building.yes" color="255,230,230" fill="1" layer="-1.00" shape="427.940124,239.118882 429.435394,239.385918 429.432075,239.497003 433.054995,240.049969 433.061632,239.827799 443.384296,241.492631 441.816325,253.987329 431.490966,252.678206 431.913350,249.132940 426.472341,248.525662 427.940124,239.118882"/>
    <poly id="155687759" type="building.yes" color="255,230,230" fill="1" layer="-1.00" shape="347.816114,248.956029 346.971440,256.046568 338.144660,254.893529 335.855600,254.713995 336.472511,249.951514 334.186767,249.660896 333.897111,248.762777 331.927556,248.481602 332.132087,246.931136 336.861673,247.517091 347.816114,248.956029"/>
    <poly id="155687781" type="building.yes" color="255,230,230" fill="1" layer="-1.00" shape="312.010942,279.574322 318.311499,280.540718 318.535926,278.323744 320.265013,278.708920 320.452958,277.713877 321.401524,277.742199 319.894101,288.482016 319.640377,289.030360 311.759437,285.348368 311.305053,284.667699 312.010942,279.574322"/>
    <poly id="155687792" type="building.yes" color="255,230,230" fill="1" layer="-1.00" shape="405.510482,192.752317 409.462896,192.870374 418.767363,193.926592 416.572523,214.430041 417.751607,214.687630 416.398794,225.543236 413.054968,228.890051 401.240928,227.091777 402.059119,220.889921 403.210677,211.473691 405.510482,192.752317"/>
    <poly id="155687808" type="building.yes" color="255,230,230" fill="1" layer="-1.00" shape="438.142018,188.946178 436.549569,181.338102 446.532901,180.858066 455.725750,180.354427 466.724659,175.012674 472.881356,186.092653 452.392137,196.598860 441.300954,202.382614 440.706273,195.805000 440.289598,188.565600 438.142018,188.946178"/>
    <poly id="155687830" type="building.yes" color="255,230,230" fill="1" layer="-1.00" shape="420.928107,238.131126 424.313885,238.677003 424.396252,238.568280 427.940124,239.118882 426.472341,248.525662 425.764231,248.393325 424.477180,259.695631 424.259354,261.690434 418.195930,260.731017 419.651020,249.100179 420.928107,238.131126"/>
    <poly id="155687833" type="building.yes" color="255,230,230" fill="1" layer="-1.00" shape="346.971440,256.046568 346.034452,263.579086 337.125317,262.534772 337.946762,256.221825 335.186734,255.917045 335.104370,256.025770 332.347659,255.609906 332.466509,254.279250 335.855600,254.713995 338.144660,254.893529 346.971440,256.046568"/>
    <poly id="155687854" type="building.yes" color="255,230,230" fill="1" layer="-1.00" shape="412.754116,278.691430 412.666660,286.916423 412.887210,287.478930 402.360087,290.277626 402.218583,289.717480 403.581322,278.528617 403.896263,276.725727 409.105261,276.358758 413.067578,276.143565 413.041032,277.032242 412.754116,278.691430"/>
    <poly id="155687859" type="building.yes" color="255,230,230" fill="1" layer="-1.00" shape="358.443093,287.854147 358.205952,287.847065 358.578535,285.968067 364.016198,286.686373 365.293188,275.717312 365.688424,275.729115 367.028909,275.880331 366.804466,278.097305 366.114549,285.303648 365.969153,287.522982 365.856931,288.631469 358.443093,287.854147"/>
    <poly id="155687861" type="building.yes" color="255,230,230" fill="1" layer="-1.00" shape="378.153721,189.489202 377.945861,191.150752 375.893923,190.978287 375.448347,195.301148 377.417918,195.582337 377.289106,197.246247 375.161440,196.960337 361.677370,195.445815 362.706697,187.471321 374.527452,189.047353 376.026052,189.203292 378.153721,189.489202"/>
    <poly id="155687877" type="building.yes" color="255,230,230" fill="1" layer="-1.00" shape="308.388644,308.151584 308.903271,304.164333 309.434481,299.621659 309.625740,298.515532 310.742346,298.215317 310.705865,299.437249 314.770423,298.446763 315.912460,302.594659 318.979810,313.804616 313.554883,315.310403 311.339908,307.350226 308.388644,308.151584"/>
    <poly id="155687878" type="building.yes" color="255,230,230" fill="1" layer="-1.00" shape="317.490586,236.487442 325.994570,237.853181 326.623635,237.983147 333.161374,238.956638 332.745679,242.279739 326.204626,241.417333 325.871299,244.631710 332.336617,245.380670 332.132087,246.931136 325.353896,246.061650 316.444736,245.017366 317.490586,236.487442"/>
    <poly id="155687881" type="building.yes" color="255,230,230" fill="1" layer="-1.00" shape="462.540732,222.363186 462.272225,215.461762 460.175046,211.507666 466.437048,208.470432 468.205978,207.522631 481.293300,201.131466 484.371625,206.671462 474.808894,211.611362 476.527421,214.998229 475.468079,223.972472 471.739735,223.505280 464.913437,222.656447 462.540732,222.363186"/>
    <poly id="155687889" type="building.yes" color="255,230,230" fill="1" layer="-1.00" shape="364.223944,300.924104 364.085754,300.252875 365.392030,290.952445 365.629171,290.959527 365.856931,288.631469 365.969153,287.522982 366.114549,285.303648 372.504094,285.939205 372.474236,286.938968 372.503520,288.607599 371.943555,288.813244 373.874878,298.321547 364.223944,300.924104"/>
    <poly id="155687895" type="building.yes" color="255,230,230" fill="1" layer="-1.00" shape="413.187035,272.144514 422.284110,272.193894 422.310062,273.973612 422.159545,284.309215 422.301047,284.869361 412.887210,287.478930 412.666660,286.916423 412.754116,278.691430 413.041032,277.032242 413.067578,276.143565 413.070896,276.032480 413.133943,273.921870 413.187035,272.144514"/>
    <poly id="155687898" type="building.yes" color="255,230,230" fill="1" layer="-1.00" shape="338.468666,217.545457 339.640032,207.462710 339.762200,206.020969 344.491817,206.606929 344.912473,211.066841 342.784811,210.780941 342.682544,211.556174 345.047350,211.849154 344.856084,212.955281 346.038487,213.101772 345.398348,218.641845 338.468666,217.545457"/>
    <poly id="155687908" type="building.yes" color="255,230,230" fill="1" layer="-1.00" shape="304.758854,212.425200 304.194425,202.179447 314.048907,203.363117 312.811799,212.999168 312.729435,213.107893 312.726118,213.218978 312.564706,213.325342 312.482341,213.434067 312.324245,213.429347 312.241881,213.538072 312.083785,213.533352 304.758854,212.425200"/>
    <poly id="155687932" type="building.yes" color="255,230,230" fill="1" layer="-1.00" shape="441.032522,260.890668 430.656155,259.435483 430.547241,260.432884 430.326094,262.538771 426.228902,261.971638 426.446730,259.976835 424.477180,259.695631 425.764231,248.393325 426.472341,248.525662 431.913350,249.132940 431.490966,252.678206 441.816325,253.987329 441.388294,257.721438 441.032522,260.890668"/>
    <poly id="155687941" type="building.yes" color="255,230,230" fill="1" layer="-1.00" shape="388.321726,294.083304 388.180221,293.523159 388.722022,285.978840 389.068652,282.320127 392.072444,282.409844 392.263717,281.303719 394.239897,281.362744 395.425604,281.398159 395.313378,282.506645 394.082787,291.920516 394.145245,292.478300 388.321726,294.083304"/>
    <poly id="155687947" type="building.yes" color="255,230,230" fill="1" layer="-1.00" shape="417.869194,263.723221 418.195930,260.731017 424.259354,261.690434 426.228902,261.971638 430.326094,262.538771 430.547241,260.432884 430.656155,259.435483 441.032522,260.890668 440.643744,264.370227 440.329879,267.196039 427.394106,265.341962 422.272619,264.633049 417.862557,263.945390 417.869194,263.723221"/>
    <poly id="155687963" type="building.yes" color="255,230,230" fill="1" layer="-1.00" shape="297.916535,219.003141 311.301616,221.181678 311.686906,221.526732 311.168958,225.625067 306.287891,224.812243 305.700849,228.574964 304.597496,228.430840 303.700352,234.630346 300.232202,234.193258 295.509236,233.385161 296.511949,226.299336 296.828140,226.308775 297.916535,219.003141"/>
    <poly id="155687968" type="building.yes" color="255,230,230" fill="1" layer="-1.00" shape="328.865683,274.184813 330.048075,274.331301 329.965711,274.440025 329.734647,276.879169 326.500345,276.560231 325.945905,281.880498 329.104474,282.085990 327.850763,292.277464 327.517991,292.823447 319.640377,289.030360 319.894101,288.482016 321.401524,277.742199 322.001841,273.535140 328.865683,274.184813"/>
    <poly id="155688011" type="building.yes" color="255,230,230" fill="1" layer="-1.00" shape="440.706273,195.805000 441.300954,202.382614 441.869084,209.848906 442.200669,214.639719 441.965643,219.858340 445.908084,220.309674 445.114108,227.023696 444.317478,233.826586 443.829917,234.256756 433.906402,232.737269 433.995406,232.406376 431.950119,232.011723 434.204143,212.177148 434.099144,210.395070 433.894906,206.108389 433.374697,194.918871 440.706273,195.805000"/>
    <poly id="155688019" type="building.yes" color="255,230,230" fill="1" layer="-1.00" shape="314.580781,259.749155 326.088535,261.204576 328.927607,261.511713 331.529538,261.811769 332.079553,261.939376 331.875022,263.489842 328.719761,263.173263 328.403016,265.832216 331.554959,266.259879 331.545009,266.593133 331.343795,268.032514 329.690435,267.760780 328.112806,267.602491 313.838407,266.064464 314.580781,259.749155"/>
    <poly id="155688052" type="building.yes" color="255,230,230" fill="1" layer="-1.00" shape="373.874878,298.321547 371.943555,288.813244 372.503520,288.607599 372.474236,286.938968 372.504094,285.939205 372.448270,285.159251 375.554331,284.473728 375.284589,282.909098 372.494716,283.604065 372.393594,279.042508 377.432708,279.860107 377.913051,282.320496 380.861019,281.630254 381.551959,284.986405 383.693868,295.390472 373.874878,298.321547"/>
    <poly id="155688087" type="building.yes" color="255,230,230" fill="1" layer="-1.00" shape="323.484917,189.413319 333.790489,191.388773 334.027634,191.395853 335.285772,191.655787 334.962391,194.536909 334.771126,195.643036 335.874484,195.787164 338.002152,196.073061 337.807570,197.290272 337.530623,198.616208 334.770571,198.311429 333.196241,198.042055 332.725269,197.916809 329.023271,197.361540 322.643585,196.392776 323.484917,189.413319"/>
    <poly id="155688132" type="building.yes" color="255,230,230" fill="1" layer="-1.00" shape="352.926740,207.637088 351.560769,218.937044 351.557452,219.048128 351.475087,219.156853 351.392722,219.265577 351.310357,219.374301 351.069896,219.478305 350.911800,219.473584 350.753704,219.468863 345.398348,218.641845 346.038487,213.101772 344.856084,212.955281 345.047350,211.849154 346.150705,211.993285 346.935673,206.902271 352.926740,207.637088"/>
    <poly id="155688139" type="building.yes" color="255,230,230" fill="1" layer="-1.00" shape="337.412905,178.710800 339.856772,179.006139 339.619070,181.667452 336.381403,181.459595 336.589252,179.798045 335.327795,179.649196 334.060802,190.285006 335.322257,190.433855 335.543373,188.327966 338.860085,188.538182 338.645601,190.421902 338.441069,191.972367 335.285772,191.655787 334.027634,191.395853 333.790489,191.388773 323.484917,189.413319 325.035470,177.229401 335.440011,178.540709 337.412905,178.710800"/>
    <poly id="155688163" type="building.yes" color="255,230,230" fill="1" layer="-1.00" shape="395.425604,281.398159 395.851285,277.741807 395.693191,277.737085 396.148734,273.080970 398.431151,273.482695 398.124331,275.808391 397.887190,275.801308 397.666053,277.907196 402.240837,278.377393 402.541022,276.273866 403.881507,276.425090 403.878189,276.536175 403.581322,278.528617 402.218583,289.717480 402.360087,290.277626 394.145245,292.478300 394.082787,291.920516 395.313378,282.506645 395.425604,281.398159"/>
    <poly id="155688175" type="building.yes" color="255,230,230" fill="1" layer="-1.00" shape="388.092168,198.458360 386.969913,209.543223 386.286608,216.527396 385.408714,224.728778 378.399995,223.629985 376.351385,223.346435 377.021409,216.806601 378.994290,216.976706 379.547626,216.993231 380.373006,207.900810 374.302892,207.163606 373.666046,212.592593 371.225510,212.186156 370.789890,216.175764 370.236554,216.159239 365.819820,215.693787 366.268707,211.259841 359.813307,210.177593 360.746997,202.756162 374.444973,205.055357 375.161440,196.960337 377.289106,197.246247 388.092168,198.458360"/>
    <poly id="155688186" type="building.yes" color="255,230,230" fill="1" layer="-1.00" shape="292.438639,254.084853 292.547532,253.087450 295.590589,254.512498 293.797946,258.906332 293.956041,258.911051 294.189867,259.029215 294.344645,259.145019 294.499424,259.260824 294.575155,259.374268 294.650886,259.487713 294.805665,259.603517 294.802349,259.714602 294.957127,259.830406 294.950495,260.052576 295.026226,260.166020 295.022910,260.277105 295.019594,260.388190 296.188724,260.979010 298.320772,255.817023 306.824186,259.851131 305.808198,267.381293 298.872476,263.838722 291.544825,260.173275 292.438639,254.084853"/>
    <poly id="155688202" type="building.apartments" color="255,230,230" fill="1" layer="-1.00" shape="418.195930,260.731017 417.869194,263.723221 413.373447,263.255374 406.908151,262.506332 406.604646,264.720943 399.036006,263.827767 398.930414,264.714084 396.723724,264.425805 396.908362,263.541849 393.911197,263.229961 389.102577,262.641602 382.242042,261.880780 372.700529,260.817530 372.928292,258.489472 363.073901,257.305708 363.430469,253.313740 363.747228,250.654788 364.605190,243.119912 369.888111,243.722416 376.669619,244.480863 386.764490,245.560645 407.583286,247.850231 413.024297,248.457492 416.100516,248.771751 419.651020,249.100179 418.195930,260.731017"/>
    <poly id="155688210" type="building.yes" color="255,230,230" fill="1" layer="-1.00" shape="289.457274,322.151479 289.160985,321.475531 290.187440,310.943719 290.411857,308.726744 290.418489,308.504574 290.576583,308.509294 290.708688,306.734297 291.094515,304.410957 291.328881,301.860728 289.142097,300.905977 290.575431,297.946804 292.433846,293.999669 296.140733,286.438652 303.007333,289.645607 302.288187,295.183325 295.035763,294.299711 294.434923,301.175166 293.380783,302.033166 293.222690,302.028447 292.988323,304.578676 292.678226,307.015461 298.043461,307.509182 298.350244,305.183482 301.031203,305.485887 300.724420,307.811587 299.269550,319.442446 289.457274,322.151479"/>
    <poly id="155688214" type="building.yes" color="255,230,230" fill="1" layer="-1.00" shape="329.574388,223.950913 339.260788,225.463157 349.813393,227.112465 349.971489,227.117186 350.126267,227.232991 350.281046,227.348797 350.356776,227.462242 350.432507,227.575687 350.429190,227.686772 350.425873,227.797857 350.422556,227.908942 349.505465,234.774951 338.327125,232.884591 336.828534,232.728660 333.992766,232.310436 333.873916,233.641093 333.161374,238.956638 326.623635,237.983147 325.994570,237.853181 326.403629,234.752250 330.418478,235.428043 330.649543,232.988899 330.333352,232.979458 330.814827,230.103056 328.848583,229.710797 329.574388,223.950913"/>
    <poly id="155688216" type="building.yes" color="255,230,230" fill="1" layer="-1.00" shape="484.371625,206.671462 484.533041,206.565102 488.427777,213.908440 487.665804,214.519418 486.971987,215.232499 486.138478,216.119300 485.323434,216.917706 484.676051,217.665530 484.000306,218.568164 483.527161,219.310076 483.031297,220.017954 482.611162,220.839280 482.184450,221.615934 481.774211,222.370845 481.434784,223.138990 481.087120,223.918007 480.787216,224.687333 475.468079,223.972472 476.527421,214.998229 474.808894,211.611362 484.371625,206.671462"/>
    <poly id="155688238" type="building.yes" color="255,230,230" fill="1" layer="-1.00" shape="472.881356,186.092653 476.558890,192.762388 455.681081,203.034605 452.392137,196.598860 472.881356,186.092653"/>
    <poly id="155688243" type="building.yes" color="255,230,230" fill="1" layer="-1.00" shape="360.746997,202.756162 361.677370,195.445815 375.161440,196.960337 374.444973,205.055357 360.746997,202.756162"/>
    <poly id="155688244" type="building.yes" color="255,230,230" fill="1" layer="-1.00" shape="370.789890,216.175764 371.225510,212.186156 373.666046,212.592593 373.200189,216.269983 370.789890,216.175764"/>
    <poly id="155688254" type="building.yes" color="255,230,230" fill="1" layer="-1.00" shape="333.988842,266.888471 333.790945,268.216767 331.343795,268.032514 331.545009,266.593133 333.988842,266.888471"/>
    <poly id="155688269" type="building.yes" color="255,230,230" fill="1" layer="-1.00" shape="365.819820,215.693787 359.117329,214.937712 359.813307,210.177593 366.268707,211.259841 365.819820,215.693787"/>
    <poly id="155688289" type="building.yes" color="255,230,230" fill="1" layer="-1.00" shape="354.576300,194.789028 353.748202,201.324143 342.256928,199.313251 343.483572,192.678852 354.576300,194.789028"/>
    <poly id="155688295" type="building.yes" color="255,230,230" fill="1" layer="-1.00" shape="337.807570,197.290272 340.169065,197.694336 340.050213,199.024992 337.530623,198.616208 337.807570,197.290272"/>
    <poly id="155688297" type="building.yes" color="255,230,230" fill="1" layer="-1.00" shape="355.897248,240.636192 356.738615,233.656739 365.647788,234.701079 364.799777,241.902701 355.897248,240.636192"/>
    <poly id="155688358" type="building.yes" color="255,230,230" fill="1" layer="-1.00" shape="298.868556,250.718925 307.761128,252.318608 306.824186,259.851131 298.320772,255.817023 298.086946,255.698859 298.868556,250.718925"/>
    <poly id="155688370" type="building.yes" color="255,230,230" fill="1" layer="-1.00" shape="318.414276,229.399260 326.839221,230.762640 326.403629,234.752250 325.994570,237.853181 317.490586,236.487442 318.414276,229.399260"/>
    <poly id="155688375" type="building.yes" color="255,230,230" fill="1" layer="-1.00" shape="307.047878,196.705447 307.671402,191.720794 308.162817,188.511137 315.810601,189.406562 314.692336,197.711956 307.047878,196.705447"/>
    <poly id="155688379" type="building.yes" color="255,230,230" fill="1" layer="-1.00" shape="370.236554,216.159239 369.655538,222.368180 358.470545,220.699955 359.117329,214.937712 365.819820,215.693787 370.236554,216.159239"/>
    <poly id="155688388" type="building.yes" color="255,230,230" fill="1" layer="-1.00" shape="304.570793,181.621694 316.552979,183.091253 315.810601,189.406562 308.162817,188.511137 303.828427,187.937004 304.570793,181.621694"/>
    <poly id="155688407" type="building.yes" color="255,230,230" fill="1" layer="-1.00" shape="295.694607,277.530635 298.409828,271.385404 304.884524,274.469477 304.138844,280.895872 303.414155,281.318972 295.694607,277.530635"/>
    <poly id="155688411" type="building.yes" color="255,230,230" fill="1" layer="-1.00" shape="429.083105,282.959471 428.783509,282.394601 427.394106,265.341962 440.329879,267.196039 439.658041,272.735162 438.734098,280.357010 429.083105,282.959471"/>
    <poly id="155688412" type="building.yes" color="255,230,230" fill="1" layer="-1.00" shape="303.816851,196.275437 307.047878,196.705447 314.692336,197.711956 314.048907,203.363117 304.194425,202.179447 303.816851,196.275437"/>
    <poly id="155688431" type="building.yes" color="255,230,230" fill="1" layer="-1.00" shape="370.236554,216.159239 370.789890,216.175764 377.021409,216.806601 376.351385,223.346435 369.655538,222.368180 370.236554,216.159239"/>
    <poly id="155688450" type="building.yes" color="255,230,230" fill="1" layer="-1.00" shape="419.177057,188.157271 417.358946,188.102961 417.666952,180.440477 421.220813,180.657820 420.916121,188.209219 419.177057,188.157271"/>
    <poly id="155688451" type="building.yes" color="255,230,230" fill="1" layer="-1.00" shape="322.643585,196.392776 329.023271,197.361540 328.290832,203.343594 327.476029,209.434373 321.093038,208.576694 322.643585,196.392776"/>
    <poly id="155688458" type="building.yes" color="255,230,230" fill="1" layer="-1.00" shape="354.841394,249.499366 355.897248,240.636192 364.799777,241.902701 364.605190,243.119912 363.747228,250.654788 362.169595,250.496491 354.841394,249.499366"/>
    <poly id="155688459" type="building.yes" color="255,230,230" fill="1" layer="-1.00" shape="452.765341,221.181648 450.780395,216.119069 454.953950,214.131269 460.175046,211.507666 462.272225,215.461762 462.540732,222.363186 458.031472,221.817077 452.765341,221.181648"/>
    <poly id="155688475" type="building.yes" color="255,230,230" fill="1" layer="-1.00" shape="424.468555,209.662637 430.349671,210.105165 434.099144,210.395070 434.204143,212.177148 431.950119,232.011723 423.759014,230.766374 423.222271,230.194421 424.468555,209.662637"/>
    <poly id="155688479" type="building.yes" color="255,230,230" fill="1" layer="-1.00" shape="409.105261,276.358758 403.896263,276.725727 403.878189,276.536175 403.881507,276.425090 404.191647,273.988309 409.257308,273.917255 409.105261,276.358758"/>
    <poly id="155688487" type="building.yes" color="255,230,230" fill="1" layer="-1.00" shape="334.460456,200.748212 336.904315,201.043550 336.171868,207.025603 339.640032,207.462710 338.468666,217.545457 332.484241,216.588483 334.460456,200.748212"/>
    <poly id="155688499" type="building.yes" color="255,230,230" fill="1" layer="-1.00" shape="325.363251,311.993902 322.388225,300.341963 322.895673,299.245276 332.258579,303.638636 333.683622,308.906824 333.265170,309.672616 325.363251,311.993902"/>
    <poly id="155688504" type="building.yes" color="255,230,230" fill="1" layer="-1.00" shape="343.716876,179.566134 346.157425,179.972560 356.160083,181.494269 355.414349,187.920659 342.414499,186.087088 343.163537,179.549612 343.716876,179.566134"/>
    <poly id="155688512" type="building.yes" color="255,230,230" fill="1" layer="-1.00" shape="356.738615,233.656739 357.441225,228.674450 357.846415,228.352998 366.192309,229.714069 365.805883,234.705800 365.647788,234.701079 356.738615,233.656739"/>
    <poly id="155688521" type="building.yes" color="255,230,230" fill="1" layer="-1.00" shape="299.592103,239.733335 309.199435,241.243175 308.480281,246.780892 293.833809,244.453518 294.137275,242.238902 299.097377,243.054078 299.592103,239.733335"/>
    <poly id="155688524" type="building.yes" color="255,230,230" fill="1" layer="-1.00" shape="293.520395,247.001387 293.833809,244.453518 308.480281,246.780892 307.761128,252.318608 298.868556,250.718925 299.264337,248.062330 293.520395,247.001387"/>
    <poly id="155688567" type="building.yes" color="255,230,230" fill="1" layer="-1.00" shape="313.838407,266.064464 328.112806,267.602491 329.690435,267.760780 329.294643,270.417373 328.865683,274.184813 322.001841,273.535140 312.934624,272.486139 313.838407,266.064464"/>
    <poly id="155688573" type="building.yes" color="255,230,230" fill="1" layer="-1.00" shape="318.414276,229.399260 319.245652,222.753057 319.650841,222.431603 329.574388,223.950913 328.848583,229.710797 327.033801,229.545428 326.839221,230.762640 318.414276,229.399260"/>
    <poly id="155688584" type="building.yes" color="255,230,230" fill="1" layer="-1.00" shape="420.916121,188.209219 421.220813,180.657820 421.422638,176.550046 421.624463,172.442273 434.897978,173.061157 436.549569,181.338102 438.142018,188.946178 420.916121,188.209219"/>
    <poly id="155688607" type="building.yes" color="255,230,230" fill="1" layer="-1.00" shape="365.293188,275.717312 353.857878,274.486349 355.263657,261.853376 360.312738,262.337706 362.443700,262.512527 367.176591,262.987420 365.688424,275.729115 365.293188,275.717312"/>