<?xml version="1.0" encoding="UTF-8"?>

<!-- generated on Fri Mar 15 13:14:59 2019 by Eclipse SUMO netconvert Version 1.1.0
<configuration xmlns:xsi="http://www.w3.org/2001/XMLSchema-instance" xsi:noNamespaceSchemaLocation="http://sumo.dlr.de/xsd/netconvertConfiguration.xsd">

    <input>
        <type-files value="/usr/share/sumo/data/typemap/osmNetconvert.typ.xml"/>
        <osm-files value="osm_bbox.osm.xml"/>
    </input>

    <output>
        <output-file value="osm.net.xml"/>
        <output.street-names value="true"/>
        <output.original-names value="true"/>
    </output>

    <projection>
        <proj.utm value="true"/>
    </projection>

    <processing>
        <geometry.remove value="true"/>
        <roundabouts.guess value="true"/>
    </processing>

    <tls_building>
        <tls.discard-simple value="true"/>
        <tls.join value="true"/>
        <tls.guess-signals value="true"/>
        <tls.default-type value="actuated"/>
    </tls_building>

    <ramp_guessing>
        <ramps.guess value="true"/>
    </ramp_guessing>

    <junctions>
        <junctions.join value="true"/>
        <junctions.corner-detail value="5"/>
    </junctions>

    <report>
        <verbose value="true"/>
    </report>

</configuration>
-->

<net version="1.1" junctionCornerDetail="5" limitTurnSpeed="5.50" xmlns:xsi="http://www.w3.org/2001/XMLSchema-instance" xsi:noNamespaceSchemaLocation="http://sumo.dlr.de/xsd/net_file.xsd">

    <location netOffset="-691366.11,-4966757.05" convBoundary="0.00,0.00,852.00,1783.20" origBoundary="-0.578631,44.828470,-0.568309,44.844501" projParameter="+proj=utm +zone=30 +ellps=WGS84 +datum=WGS84 +units=m +no_defs"/>

    <type id="highway.bridleway" priority="1" numLanes="1" speed="2.78" allow="pedestrian" oneway="1" width="2.00"/>
    <type id="highway.bus_guideway" priority="1" numLanes="1" speed="27.78" allow="bus" oneway="1"/>
    <type id="highway.cycleway" priority="1" numLanes="1" speed="8.33" allow="bicycle" oneway="0" width="1.00"/>
    <type id="highway.footway" priority="1" numLanes="1" speed="2.78" allow="pedestrian" oneway="1" width="2.00"/>
    <type id="highway.ford" priority="1" numLanes="1" speed="2.78" allow="army" oneway="0"/>
    <type id="highway.living_street" priority="3" numLanes="1" speed="2.78" disallow="tram rail_urban rail rail_electric ship" oneway="0"/>
    <type id="highway.motorway" priority="13" numLanes="2" speed="44.44" allow="private emergency authority army vip passenger hov taxi bus coach delivery truck trailer motorcycle evehicle custom1 custom2" oneway="1"/>
    <type id="highway.motorway_link" priority="12" numLanes="1" speed="22.22" allow="private emergency authority army vip passenger hov taxi bus coach delivery truck trailer motorcycle evehicle custom1 custom2" oneway="1"/>
    <type id="highway.path" priority="1" numLanes="1" speed="2.78" allow="bicycle pedestrian" oneway="1" width="2.00"/>
    <type id="highway.pedestrian" priority="1" numLanes="1" speed="2.78" allow="pedestrian" oneway="1" width="2.00"/>
    <type id="highway.primary" priority="9" numLanes="2" speed="27.78" disallow="tram rail_urban rail rail_electric ship" oneway="0"/>
    <type id="highway.primary_link" priority="8" numLanes="1" speed="22.22" disallow="tram rail_urban rail rail_electric ship" oneway="0"/>
    <type id="highway.raceway" priority="14" numLanes="2" speed="83.33" allow="vip" oneway="0"/>
    <type id="highway.residential" priority="4" numLanes="1" speed="13.89" disallow="tram rail_urban rail rail_electric ship" oneway="0"/>
    <type id="highway.secondary" priority="7" numLanes="2" speed="27.78" disallow="tram rail_urban rail rail_electric ship" oneway="0"/>
    <type id="highway.secondary_link" priority="6" numLanes="1" speed="22.22" disallow="tram rail_urban rail rail_electric ship" oneway="0"/>
    <type id="highway.service" priority="2" numLanes="1" speed="5.56" allow="delivery bicycle pedestrian" oneway="0"/>
    <type id="highway.stairs" priority="1" numLanes="1" speed="1.39" allow="pedestrian" oneway="1" width="2.00"/>
    <type id="highway.step" priority="1" numLanes="1" speed="1.39" allow="pedestrian" oneway="1" width="2.00"/>
    <type id="highway.steps" priority="1" numLanes="1" speed="1.39" allow="pedestrian" oneway="1" width="2.00"/>
    <type id="highway.tertiary" priority="6" numLanes="1" speed="22.22" disallow="tram rail_urban rail rail_electric ship" oneway="0"/>
    <type id="highway.tertiary_link" priority="5" numLanes="1" speed="22.22" disallow="tram rail_urban rail rail_electric ship" oneway="0"/>
    <type id="highway.track" priority="1" numLanes="1" speed="5.56" disallow="tram rail_urban rail rail_electric ship" oneway="0"/>
    <type id="highway.trunk" priority="11" numLanes="2" speed="27.78" disallow="tram rail_urban rail rail_electric bicycle pedestrian ship" oneway="0"/>
    <type id="highway.trunk_link" priority="10" numLanes="1" speed="22.22" disallow="tram rail_urban rail rail_electric bicycle pedestrian ship" oneway="0"/>
    <type id="highway.unclassified" priority="5" numLanes="1" speed="13.89" disallow="tram rail_urban rail rail_electric ship" oneway="0"/>
    <type id="highway.unsurfaced" priority="1" numLanes="1" speed="8.33" disallow="tram rail_urban rail rail_electric ship" oneway="0"/>
    <type id="railway.light_rail" priority="15" numLanes="1" speed="27.78" allow="rail_urban" oneway="1"/>
    <type id="railway.preserved" priority="15" numLanes="1" speed="27.78" allow="rail" oneway="1"/>
    <type id="railway.rail" priority="15" numLanes="1" speed="83.33" allow="rail rail_electric" oneway="1"/>
    <type id="railway.subway" priority="15" numLanes="1" speed="27.78" allow="rail_urban" oneway="1"/>
    <type id="railway.tram" priority="15" numLanes="1" speed="13.89" allow="tram" oneway="1"/>

    <edge id=":1925165925_0" function="internal">
        <lane id=":1925165925_0_0" index="0" allow="delivery bicycle pedestrian" speed="3.65" length="4.67" shape="437.51,190.80 438.67,191.66 439.03,192.48 438.59,193.25 437.35,193.99"/>
    </edge>
    <edge id=":1925165945_0" function="internal">
        <lane id=":1925165945_0_0" index="0" allow="delivery bicycle pedestrian" speed="5.43" length="5.97" shape="427.43,193.49 425.91,193.67 424.80,194.35 424.09,195.55 423.79,197.27"/>
    </edge>
    <edge id=":1925165945_1" function="internal">
        <lane id=":1925165945_1_0" index="0" allow="delivery bicycle pedestrian" speed="5.56" length="9.98" shape="427.43,193.49 424.45,193.64 422.32,194.02 420.31,193.98 417.71,192.87"/>
    </edge>
    <edge id=":1925165945_2" function="internal">
        <lane id=":1925165945_2_0" index="0" allow="delivery bicycle pedestrian" speed="4.20" length="6.95" shape="427.43,193.49 425.32,193.91 424.06,193.49 423.65,192.22 424.07,190.12"/>
    </edge>
    <edge id=":1925165945_3" function="internal">
        <lane id=":1925165945_3_0" index="0" allow="delivery bicycle pedestrian" speed="5.56" length="4.86" shape="419.35,190.12 420.61,190.61 421.59,190.53 422.62,190.24 424.07,190.12"/>
    </edge>
    <edge id=":1925165945_4" function="internal">
        <lane id=":1925165945_4_0" index="0" allow="delivery bicycle pedestrian" speed="5.56" length="8.87" shape="419.35,190.12 421.37,191.60 422.79,193.29 423.60,195.18 423.79,197.27"/>
    </edge>
    <edge id=":1925165945_5" function="internal">
        <lane id=":1925165945_5_0" index="0" allow="delivery bicycle pedestrian" speed="3.65" length="4.67" shape="419.35,190.12 419.97,191.42 419.91,192.31 419.15,192.79 417.71,192.87"/>
    </edge>
    <edge id=":1925165945_6" function="internal">
        <lane id=":1925165945_6_0" index="0" allow="delivery bicycle pedestrian" speed="5.56" length="5.39" shape="420.60,197.11 420.46,195.92 419.94,194.82 419.02,193.80 417.71,192.87"/>
    </edge>
    <edge id=":1925165945_7" function="internal">
        <lane id=":1925165945_7_0" index="0" allow="delivery bicycle pedestrian" speed="5.56" length="8.55" shape="420.60,197.11 420.94,194.00 421.64,191.79 422.68,190.50 424.07,190.12"/>
    </edge>
    <edge id=":1925165945_8" function="internal">
        <lane id=":1925165945_8_0" index="0" allow="delivery bicycle pedestrian" speed="3.65" length="4.67" shape="420.60,197.11 421.45,195.95 422.27,195.59 423.05,196.03 423.79,197.27"/>
    </edge>
    <edge id=":1925165952_0" function="internal">
        <lane id=":1925165952_0_0" index="0" disallow="tram rail_urban rail rail_electric ship" speed="11.11" length="9.40" shape="423.19,234.51 413.90,233.09"/>
    </edge>
    <edge id=":1925165952_1" function="internal">
        <lane id=":1925165952_1_0" index="0" allow="delivery bicycle pedestrian" speed="6.09" length="7.76" shape="423.19,234.51 420.50,233.90 418.64,233.03 417.62,231.89 417.43,230.49"/>
    </edge>
    <edge id=":1925165952_2" function="internal">
        <lane id=":1925165952_2_0" index="0" disallow="tram rail_urban rail rail_electric ship" speed="6.08" length="7.77" shape="420.59,230.95 420.00,232.25 418.69,233.03 416.66,233.31 413.90,233.09"/>
    </edge>
    <edge id=":1925165952_3" function="internal">
        <lane id=":1925165952_3_0" index="0" allow="delivery bicycle pedestrian" speed="3.65" length="4.67" shape="420.59,230.95 419.63,232.02 418.78,232.30 418.04,231.79 417.43,230.49"/>
    </edge>
    <edge id=":2072626948_0" function="internal">
        <lane id=":2072626948_0_0" index="0" allow="tram" speed="13.89" length="0.10" shape="203.86,971.11 203.86,971.11"/>
    </edge>
    <edge id=":2094985182_0" function="internal">
        <lane id=":2094985182_0_0" index="0" allow="tram" speed="13.89" length="5.14" shape="483.46,282.76 485.30,277.97"/>
    </edge>
    <edge id=":2094988959_0" function="internal">
        <lane id=":2094988959_0_0" index="0" allow="tram" speed="13.89" length="2.99" shape="492.11,212.51 490.68,209.88"/>
    </edge>
    <edge id=":2485442537_0" function="internal">
        <lane id=":2485442537_0_0" index="0" allow="delivery bicycle pedestrian" speed="3.65" length="4.67" shape="579.35,180.65 580.33,179.59 581.18,179.33 581.91,179.85 582.51,181.16"/>
    </edge>
    <edge id=":2485442538_0" function="internal">
        <lane id=":2485442538_0_0" index="0" allow="delivery bicycle pedestrian" speed="3.65" length="4.67" shape="568.32,208.49 567.28,207.49 567.03,206.63 567.56,205.91 568.88,205.34"/>
    </edge>
    <edge id=":2485442539_0" function="internal">
        <lane id=":2485442539_0_0" index="0" allow="delivery bicycle pedestrian" speed="5.56" length="10.02" shape="581.45,210.17 578.49,210.01 576.45,209.85 574.44,209.56 571.51,209.05"/>
    </edge>
    <edge id=":2485442539_1" function="internal">
        <lane id=":2485442539_1_0" index="0" allow="delivery bicycle pedestrian" speed="5.56" length="10.73" shape="581.45,210.17 578.52,209.59 576.59,208.21 575.65,206.03 575.70,203.04"/>
    </edge>
    <edge id=":2485442539_2" function="internal">
        <lane id=":2485442539_2_0" index="0" allow="delivery bicycle pedestrian" speed="3.65" length="4.67" shape="581.45,210.17 580.30,209.31 579.94,208.49 580.38,207.71 581.61,206.97"/>
    </edge>
    <edge id=":2485442539_3" function="internal">
        <lane id=":2485442539_3_0" index="0" allow="delivery bicycle pedestrian" speed="4.93" length="5.14" shape="578.86,203.56 578.83,204.99 579.28,206.04 580.21,206.70 581.61,206.97"/>
    </edge>
    <edge id=":2485442539_4" function="internal">
        <lane id=":2485442539_4_0" index="0" allow="delivery bicycle pedestrian" speed="5.56" length="10.50" shape="578.86,203.56 578.00,206.38 576.48,208.24 574.32,209.13 571.51,209.05"/>
    </edge>
    <edge id=":2485442539_5" function="internal">
        <lane id=":2485442539_5_0" index="0" allow="delivery bicycle pedestrian" speed="3.65" length="4.67" shape="578.86,203.56 577.88,204.61 577.02,204.88 576.30,204.36 575.70,203.04"/>
    </edge>
    <edge id=":2485442539_6" function="internal">
        <lane id=":2485442539_6_0" index="0" allow="delivery bicycle pedestrian" speed="5.13" length="5.29" shape="572.07,205.90 573.45,205.93 574.52,205.46 575.27,204.50 575.70,203.04"/>
    </edge>
    <edge id=":2485442539_7" function="internal">
        <lane id=":2485442539_7_0" index="0" allow="delivery bicycle pedestrian" speed="5.56" length="9.62" shape="572.07,205.90 574.88,206.39 576.82,206.66 578.76,206.82 581.61,206.97"/>
    </edge>
    <edge id=":2485442539_8" function="internal">
        <lane id=":2485442539_8_0" index="0" allow="delivery bicycle pedestrian" speed="3.65" length="4.67" shape="572.07,205.90 573.11,206.90 573.36,207.76 572.83,208.48 571.51,209.05"/>
    </edge>
    <edge id=":2485442540_0" function="internal">
        <lane id=":2485442540_0_0" index="0" allow="delivery bicycle pedestrian" speed="3.65" length="4.67" shape="581.99,206.99 583.14,207.85 583.50,208.67 583.06,209.45 581.82,210.19"/>
    </edge>
    <edge id=":250375867_0" function="internal">
        <lane id=":250375867_0_0" index="0" disallow="tram rail_urban rail rail_electric ship" speed="5.91" length="9.07" shape="301.07,283.66 303.59,284.47 305.50,284.18 306.80,282.78 307.47,280.29"/>
    </edge>
    <edge id=":250375867_1" function="internal">
        <lane id=":250375867_1_0" index="0" disallow="tram rail_urban rail rail_electric ship" speed="8.33" length="12.67" shape="301.07,283.66 304.04,285.26 306.53,286.86 309.00,288.47 311.96,290.12"/>
    </edge>
    <edge id=":250375867_2" function="internal">
        <lane id=":250375867_2_0" index="0" disallow="tram rail_urban rail rail_electric ship" speed="13.89" length="12.67" shape="305.39,292.79 307.47,280.29"/>
    </edge>
    <edge id=":250375867_3" function="internal">
        <lane id=":250375867_3_0" index="0" disallow="tram rail_urban rail rail_electric ship" speed="5.83" length="8.92" shape="305.39,292.79 306.05,290.51 307.36,289.31 309.33,289.17 311.96,290.12"/>
    </edge>
    <edge id=":250375869_0" function="internal">
        <lane id=":250375869_0_0" index="0" disallow="tram rail_urban rail rail_electric ship" speed="3.65" length="4.67" shape="367.99,310.59 366.62,310.15 366.02,309.49 366.18,308.61 367.12,307.51"/>
    </edge>
    <edge id=":250511204_0" function="internal">
        <lane id=":250511204_0_0" index="0" disallow="tram rail_urban rail rail_electric ship" speed="8.33" length="5.67" shape="576.71,281.01 582.38,280.93"/>
    </edge>
    <edge id=":250601494_0" function="internal">
        <lane id=":250601494_0_0" index="0" disallow="tram rail_urban rail rail_electric ship" speed="3.65" length="4.67" shape="538.30,28.50 539.08,27.29 539.87,26.87 540.68,27.25 541.50,28.44"/>
    </edge>
    <edge id=":252692572_0" function="internal">
        <lane id=":252692572_0_0" index="0" disallow="tram rail_urban rail rail_electric ship" speed="13.89" length="11.06" shape="320.63,217.49 309.69,215.82"/>
    </edge>
    <edge id=":252692572_1" function="internal">
        <lane id=":252692572_1_0" index="0" disallow="tram rail_urban rail rail_electric ship" speed="6.57" length="4.24" shape="320.63,217.49 318.27,216.78 316.89,215.65"/>
    </edge>
    <edge id=":252692572_4" function="internal">
        <lane id=":252692572_4_0" index="0" disallow="tram rail_urban rail rail_electric ship" speed="6.57" length="4.76" shape="316.89,215.65 316.69,215.48 315.87,213.61 315.83,211.16"/>
    </edge>
    <edge id=":252692572_2" function="internal">
        <lane id=":252692572_2_0" index="0" disallow="tram rail_urban rail rail_electric ship" speed="6.56" length="8.99" shape="314.49,222.14 314.44,219.68 313.62,217.81 312.04,216.52 309.69,215.82"/>
    </edge>
    <edge id=":252692572_3" function="internal">
        <lane id=":252692572_3_0" index="0" disallow="tram rail_urban rail rail_electric ship" speed="13.89" length="11.06" shape="314.49,222.14 315.83,211.16"/>
    </edge>
    <edge id=":252692573_0" function="internal">
        <lane id=":252692573_0_0" index="0" disallow="tram rail_urban rail rail_electric ship" speed="6.38" length="8.84" shape="359.41,224.72 356.84,224.66 354.91,225.35 353.63,226.79 353.00,228.99"/>
    </edge>
    <edge id=":252692573_1" function="internal">
        <lane id=":252692573_1_0" index="0" disallow="tram rail_urban rail rail_electric ship" speed="13.89" length="11.78" shape="359.41,224.72 356.24,224.05 353.72,223.24 351.19,222.43 348.02,221.75"/>
    </edge>
    <edge id=":252692573_2" function="internal">
        <lane id=":252692573_2_0" index="0" disallow="tram rail_urban rail rail_electric ship" speed="13.89" length="11.78" shape="354.43,217.30 353.00,228.99"/>
    </edge>
    <edge id=":252692573_3" function="internal">
        <lane id=":252692573_3_0" index="0" disallow="tram rail_urban rail rail_electric ship" speed="6.42" length="4.48" shape="354.43,217.30 353.79,219.58 352.50,221.09 352.38,221.13"/>
    </edge>
    <edge id=":252692573_4" function="internal">
        <lane id=":252692573_4_0" index="0" disallow="tram rail_urban rail rail_electric ship" speed="6.42" length="4.48" shape="352.38,221.13 350.58,221.81 348.02,221.75"/>
    </edge>
    <edge id=":254611049_0" function="internal">
        <lane id=":254611049_0_0" index="0" allow="tram" speed="13.89" length="0.21" shape="206.95,972.10 206.88,972.29"/>
    </edge>
    <edge id=":3201628069_0" function="internal">
        <lane id=":3201628069_0_0" index="0" allow="bus bicycle" speed="3.65" length="4.67" shape="699.63,211.80 701.00,212.25 701.60,212.91 701.43,213.79 700.50,214.88"/>
    </edge>
    <edge id=":35251131_0" function="internal">
        <lane id=":35251131_0_0" index="0" allow="tram" speed="13.89" length="5.13" shape="488.35,279.32 486.44,284.09"/>
    </edge>
    <edge id=":4935896888_0" function="internal">
        <lane id=":4935896888_0_0" index="0" allow="delivery bicycle pedestrian" speed="3.65" length="4.67" shape="411.96,169.58 412.90,168.49 413.74,168.19 414.48,168.68 415.13,169.97"/>
    </edge>
    <edge id=":4935896894_0" function="internal">
        <lane id=":4935896894_0_0" index="0" allow="delivery bicycle pedestrian" speed="5.56" length="13.31" shape="412.66,191.79 409.24,191.13 406.20,190.22 403.16,189.31 399.75,188.64"/>
    </edge>
    <edge id=":4935896894_1" function="internal">
        <lane id=":4935896894_1_0" index="0" allow="delivery bicycle pedestrian" speed="5.56" length="13.58" shape="412.66,191.79 411.28,190.84 410.51,188.41 410.35,184.49 410.80,179.07"/>
    </edge>
    <edge id=":4935896894_2" function="internal">
        <lane id=":4935896894_2_0" index="0" allow="delivery bicycle pedestrian" speed="3.86" length="5.48" shape="412.66,191.79 412.13,190.18 412.34,189.15 413.29,188.71 414.98,188.84"/>
    </edge>
    <edge id=":4935896894_3" function="internal">
        <lane id=":4935896894_3_0" index="0" allow="delivery bicycle pedestrian" speed="5.46" length="6.06" shape="413.48,183.49 413.34,185.74 413.55,187.38 414.09,188.41 414.98,188.84"/>
    </edge>
    <edge id=":4935896894_4" function="internal">
        <lane id=":4935896894_4_0" index="0" allow="delivery bicycle pedestrian" speed="5.56" length="16.28" shape="413.48,183.49 412.32,186.33 409.64,188.14 405.45,188.91 399.75,188.64"/>
    </edge>
    <edge id=":4935896894_5" function="internal">
        <lane id=":4935896894_5_0" index="0" allow="delivery bicycle pedestrian" speed="4.34" length="7.55" shape="413.48,183.49 411.16,183.39 409.93,182.62 409.81,181.18 410.80,179.07"/>
    </edge>
    <edge id=":4935896894_6" function="internal">
        <lane id=":4935896894_6_0" index="0" allow="delivery bicycle pedestrian" speed="5.56" length="14.12" shape="400.13,185.46 404.45,185.51 407.67,184.46 409.79,182.31 410.80,179.07"/>
    </edge>
    <edge id=":4935896894_7" function="internal">
        <lane id=":4935896894_7_0" index="0" allow="delivery bicycle pedestrian" speed="5.56" length="15.23" shape="400.13,185.46 403.85,186.16 407.55,187.16 411.26,188.15 414.98,188.84"/>
    </edge>
    <edge id=":4935896894_8" function="internal">
        <lane id=":4935896894_8_0" index="0" allow="delivery bicycle pedestrian" speed="3.65" length="4.67" shape="400.13,185.46 401.23,186.40 401.53,187.25 401.03,187.99 399.75,188.64"/>
    </edge>
    <edge id=":4935896895_0" function="internal">
        <lane id=":4935896895_0_0" index="0" allow="delivery bicycle pedestrian" speed="3.65" length="4.67" shape="377.21,185.89 376.12,184.95 375.82,184.10 376.31,183.36 377.60,182.71"/>
    </edge>
    <edge id=":5734972298_0" function="internal">
        <lane id=":5734972298_0_0" index="0" disallow="tram rail_urban rail rail_electric ship" speed="27.78" length="0.23" shape="532.06,195.99 532.04,196.10"/>
        <lane id=":5734972298_0_1" index="1" disallow="tram rail_urban rail rail_electric ship" speed="27.78" length="0.23" shape="528.93,195.31 528.87,195.66"/>
    </edge>
    <edge id=":5734972298_2" function="internal">
        <lane id=":5734972298_2_0" index="0" disallow="tram rail_urban rail rail_electric ship" speed="3.65" length="2.34" shape="528.93,195.31 527.90,196.32 527.03,196.54"/>
    </edge>
    <edge id=":5734972298_6" function="internal">
        <lane id=":5734972298_6_0" index="0" disallow="tram rail_urban rail rail_electric ship" speed="3.65" length="2.34" shape="527.03,196.54 526.33,195.98 525.80,194.64"/>
    </edge>
    <edge id=":5734972298_3" function="internal">
        <lane id=":5734972298_3_0" index="0" disallow="tram rail_urban rail rail_electric ship" speed="27.78" length="0.70" shape="522.53,194.77 522.67,193.96"/>
        <lane id=":5734972298_3_1" index="1" disallow="tram rail_urban rail rail_electric ship" speed="27.78" length="0.70" shape="525.70,195.21 525.80,194.64"/>
    </edge>
    <edge id=":5734972298_5" function="internal">
        <lane id=":5734972298_5_0" index="0" disallow="tram rail_urban rail rail_electric ship" speed="3.65" length="2.34" shape="525.70,195.21 526.66,194.14 527.51,193.85"/>
    </edge>
    <edge id=":5734972298_7" function="internal">
        <lane id=":5734972298_7_0" index="0" disallow="tram rail_urban rail rail_electric ship" speed="3.65" length="2.34" shape="527.51,193.85 528.24,194.36 528.87,195.66"/>
    </edge>
    <edge id=":5786713628_0" function="internal">
        <lane id=":5786713628_0_0" index="0" allow="delivery bicycle pedestrian" speed="5.56" length="6.03" shape="463.37,294.70 461.02,300.26"/>
    </edge>
    <edge id=":5786713629_0" function="internal">
        <lane id=":5786713629_0_0" index="0" allow="delivery bicycle pedestrian" speed="5.56" length="5.90" shape="470.46,295.58 468.32,301.08"/>
    </edge>
    <edge id=":5898763428_0" function="internal">
        <lane id=":5898763428_0_0" index="0" disallow="tram rail_urban rail rail_electric ship" speed="8.33" length="5.02" shape="557.71,308.85 557.12,313.83"/>
    </edge>
    <edge id=":5898790797_0" function="internal">
        <lane id=":5898790797_0_0" index="0" disallow="tram rail_urban rail rail_electric ship" speed="8.33" length="5.05" shape="559.19,295.29 558.66,300.32"/>
    </edge>
    <edge id=":5898883822_0" function="internal">
        <lane id=":5898883822_0_0" index="0" disallow="tram rail_urban rail rail_electric ship" speed="22.22" length="3.13" shape="497.30,206.93 498.63,209.76"/>
    </edge>
    <edge id=":5898883823_0" function="internal">
        <lane id=":5898883823_0_0" index="0" disallow="tram rail_urban rail rail_electric ship" speed="27.78" length="7.02" shape="530.37,208.01 529.40,214.95"/>
        <lane id=":5898883823_0_1" index="1" disallow="tram rail_urban rail rail_electric ship" speed="27.78" length="7.02" shape="527.20,207.56 526.23,214.52"/>
    </edge>
    <edge id=":5898883823_2" function="internal">
        <lane id=":5898883823_2_0" index="0" disallow="tram rail_urban rail rail_electric ship" speed="3.65" length="2.34" shape="527.20,207.56 526.24,208.64 525.40,208.93"/>
    </edge>
    <edge id=":5898883823_6" function="internal">
        <lane id=":5898883823_6_0" index="0" disallow="tram rail_urban rail rail_electric ship" speed="3.65" length="2.34" shape="525.40,208.93 524.66,208.42 524.03,207.12"/>
    </edge>
    <edge id=":5898883823_3" function="internal">
        <lane id=":5898883823_3_0" index="0" disallow="tram rail_urban rail rail_electric ship" speed="27.78" length="7.15" shape="519.87,213.75 520.86,206.68"/>
        <lane id=":5898883823_3_1" index="1" disallow="tram rail_urban rail rail_electric ship" speed="27.78" length="7.15" shape="523.04,214.20 524.03,207.12"/>
    </edge>
    <edge id=":5898883823_5" function="internal">
        <lane id=":5898883823_5_0" index="0" disallow="tram rail_urban rail rail_electric ship" speed="3.65" length="2.34" shape="523.04,214.20 523.96,213.08 524.80,212.76"/>
    </edge>
    <edge id=":5898883823_7" function="internal">
        <lane id=":5898883823_7_0" index="0" disallow="tram rail_urban rail rail_electric ship" speed="3.65" length="2.34" shape="524.80,212.76 525.55,213.24 526.23,214.52"/>
    </edge>
    <edge id=":5898883828_0" function="internal">
        <lane id=":5898883828_0_0" index="0" allow="tram" speed="13.89" length="3.44" shape="493.59,208.44 495.26,211.44"/>
    </edge>
    <edge id=":5898883829_0" function="internal">
        <lane id=":5898883829_0_0" index="0" allow="tram" speed="13.89" length="33.28" shape="452.20,361.26 464.57,330.37"/>
    </edge>
    <edge id=":5898883830_0" function="internal">
        <lane id=":5898883830_0_0" index="0" allow="tram" speed="13.89" length="5.03" shape="467.42,331.47 465.55,336.15"/>
    </edge>
    <edge id=":5898883834_0" function="internal">
        <lane id=":5898883834_0_0" index="0" allow="tram" speed="13.89" length="2.98" shape="493.31,215.45 493.01,214.61 492.83,214.03 492.61,213.47 492.21,212.69"/>
    </edge>
    <edge id=":5898883836_0" function="internal">
        <lane id=":5898883836_0_0" index="0" allow="delivery bicycle pedestrian" speed="5.56" length="6.64" shape="471.82,234.43 473.79,234.59 475.14,234.69 476.48,234.89 478.39,235.36"/>
    </edge>
    <edge id=":610300019_0" function="internal">
        <lane id=":610300019_0_0" index="0" disallow="tram rail_urban rail rail_electric ship" speed="7.44" length="11.64" shape="453.00,248.05 453.11,244.20 452.43,241.32 450.97,239.41 448.73,238.48"/>
    </edge>
    <edge id=":610300019_1" function="internal">
        <lane id=":610300019_1_0" index="0" allow="delivery bicycle pedestrian" speed="6.95" length="12.28" shape="453.00,248.05 452.95,244.69 452.45,241.79 452.29,239.01 453.25,235.96"/>
    </edge>
    <edge id=":610300019_2" function="internal">
        <lane id=":610300019_2_0" index="0" disallow="tram rail_urban rail rail_electric ship" speed="6.95" length="11.00" shape="456.60,245.35 455.36,242.72 453.64,240.70 451.42,239.28 448.73,238.48"/>
    </edge>
    <edge id=":610300019_3" function="internal">
        <lane id=":610300019_3_0" index="0" allow="delivery bicycle pedestrian" speed="5.56" length="10.00" shape="456.60,245.35 455.87,243.61 454.63,240.63 453.53,237.67 453.25,235.96"/>
    </edge>
    <edge id=":933772610_0" function="internal">
        <lane id=":933772610_0_0" index="0" disallow="tram rail_urban rail rail_electric ship" speed="8.33" length="5.12" shape="446.39,238.09 441.33,237.28"/>
    </edge>
    <edge id=":cluster_1309260317_1925320698_250288086_250288099_2615979416_2615979417_5786713632_5786713634_5898883849_933772595_933772621_0" function="internal">
        <lane id=":cluster_1309260317_1925320698_250288086_250288099_2615979416_2615979417_5786713632_5786713634_5898883849_933772595_933772621_0_0" index="0" disallow="tram rail_urban rail rail_electric ship" speed="17.89" length="35.81" shape="433.85,285.10 446.87,281.11 456.57,277.35 462.95,273.82 466.00,270.52"/>
    </edge>
    <edge id=":cluster_1309260317_1925320698_250288086_250288099_2615979416_2615979417_5786713632_5786713634_5898883849_933772595_933772621_1" function="internal">
        <lane id=":cluster_1309260317_1925320698_250288086_250288099_2615979416_2615979417_5786713632_5786713634_5898883849_933772595_933772621_1_0" index="0" disallow="tram rail_urban rail rail_electric ship" speed="12.60" length="25.90" shape="434.71,288.18 441.02,285.54 445.76,281.60 448.94,276.34 450.54,269.78"/>
    </edge>
    <edge id=":cluster_1309260317_1925320698_250288086_250288099_2615979416_2615979417_5786713632_5786713634_5898883849_933772595_933772621_2" function="internal">
        <lane id=":cluster_1309260317_1925320698_250288086_250288099_2615979416_2615979417_5786713632_5786713634_5898883849_933772595_933772621_2_0" index="0" disallow="tram rail_urban rail rail_electric ship" speed="18.06" length="38.58" shape="434.71,288.18 448.41,283.92 458.68,279.78 465.52,275.74 468.94,271.80"/>
    </edge>
    <edge id=":cluster_1309260317_1925320698_250288086_250288099_2615979416_2615979417_5786713632_5786713634_5898883849_933772595_933772621_3" function="internal">
        <lane id=":cluster_1309260317_1925320698_250288086_250288099_2615979416_2615979417_5786713632_5786713634_5898883849_933772595_933772621_3_0" index="0" allow="delivery bicycle pedestrian" speed="12.51" length="15.81" shape="434.71,288.18 449.91,284.92 450.18,284.91"/>
    </edge>
    <edge id=":cluster_1309260317_1925320698_250288086_250288099_2615979416_2615979417_5786713632_5786713634_5898883849_933772595_933772621_4" function="internal">
        <lane id=":cluster_1309260317_1925320698_250288086_250288099_2615979416_2615979417_5786713632_5786713634_5898883849_933772595_933772621_4_0" index="0" allow="delivery bicycle pedestrian" speed="9.28" length="10.60" shape="434.71,288.18 444.42,286.59 445.18,286.56"/>
    </edge>
    <edge id=":cluster_1309260317_1925320698_250288086_250288099_2615979416_2615979417_5786713632_5786713634_5898883849_933772595_933772621_5" function="internal">