<?xml version="1.0" encoding="UTF-8"?>
<!-- generated on 2019-03-15 13:14:59.931056 by $Id$ via randomTrips.py
  options:
-->
<routes xmlns:xsi="http://www.w3.org/2001/XMLSchema-instance" xsi:noNamespaceSchemaLocation="http://sumo.dlr.de/xsd/routes_file.xsd">
    <vType id="veh_passenger" vClass="passenger">
    </vType>
    <trip id="veh1" depart="00.91" departLane="best" departSpeed="max" from="-604385373" to="-180582572#1" type="veh_passenger"/>
    <trip id="veh2" depart="1.81" departLane="best" departSpeed="max" from="180582572#0" to="23160144#2" type="veh_passenger"/>
    <trip id="veh3" depart="2.72" departLane="best" departSpeed="max" from="-604385373" to="116016363" type="veh_passenger"/>
    <trip id="veh6" depart="3.44" departLane="best" from="604385374#2" to="194299561#2" type="veh_passenger"/>
    <trip id="veh8" depart="9.25" departLane="best" departSpeed="max" from="-604385373" to="-180582572#1" type="veh_passenger"/>
    <trip id="veh9" depart="14.16" departLane="best" departSpeed="max" from="-604385373" to="23164667#1" type="veh_passenger"/>
    <trip id="veh10" depart="10.06" departLane="best" departSpeed="max" from="80036959#0" to="604385373" type="veh_passenger"/>
    <trip id="veh11" depart="11.97" departLane="best" departSpeed="max" from="-604385373" to="194299561#2" type="veh_passenger"/>
    <trip id="veh12" depart="8.88" departLane="best" departSpeed="max" from="180582572#0" to="23160144#2" type="veh_passenger"/>
    <trip id="veh13" depart="11.78" departLane="best" from="-604385374#2" to="23170021#3" type="veh_passenger"/>
    <trip id="veh14" depart="14.69" departLane="best" departSpeed="max" from="185675434#0" to="503244725#1" type="veh_passenger"/>
    <trip id="veh15" depart="5.59" departLane="best" departSpeed="max" from="-604385373" to="194299561#2" type="veh_passenger"/>
    <trip id="veh16" depart="7.50" departLane="best" from="-604385374#1" to="194299561#2" type="veh_passenger"/>
    <trip id="veh17" depart="12.41" departLane="best" departSpeed="max" from="80036959#0" to="23160144#2" type="veh_passenger"/>
    <trip id="veh19" depart="23.22" departLane="best" from="182187278#0" to="23160144#2" type="veh_passenger"/>
    <trip id="veh20" depart="24.13" departLane="best" from="-182187278#0" to="194299561#2" type="veh_passenger"/>
    <trip id="veh21" depart="26.03" departLane="best" departSpeed="max" from="-604385373" to="-180582572#1" type="veh_passenger"/>
    <trip id="veh22" depart="27.94" departLane="best" departSpeed="max" from="48018456#0" to="23160144#2" type="veh_passenger"/>
    <trip id="veh23" depart="28.85" departLane="best" departSpeed="max" from="185675434#0" to="163984487#0" type="veh_passenger"/>
    <trip id="veh24" depart="29.75" departLane="best" departSpeed="max" from="180582572#0" to="604385373" type="veh_passenger"/>
    <trip id="veh25" depart="31.66" departLane="best" departSpeed="max" from="-604385373" to="194299561#2" type="veh_passenger"/>
    <trip id="veh27" depart="2.47" departLane="best" departSpeed="max" from="180582572#0" to="23160144#2" type="veh_passenger"/>
</routes>
