<?xml version="1.0" encoding="UTF-8"?>

<routes xmlns:xsi="http://www.w3.org/2001/XMLSchema-instance" xsi:noNamespaceSchemaLocation="http://sumo.dlr.de/xsd/routes_file.xsd">
    <vType id="veh_passenger" vClass="passenger"/>
    <vehicle id="1" type="veh_passenger" depart="0.00" departLane="best" departSpeed="max">
        <route edges="26585732#0 26585732#3 26585732#4 5117193#0 5117193#1 119086616#7 189585366 26586731#1 26586731#3 625566101 625562681#0 182069785#0 182069785#1 182069785#2 189536164#0 189536164#1 291166426#1 291166426#4 182069787#1 625562664#1 625562664#2 621442432 311929814#1 -182069806#4 -182069806#3 -182069806#2 -182069806#1 -182069806#0"/>
    </vehicle>
    <vehicle id="2" type="veh_passenger" depart="6.15" departLane="best" departSpeed="max">
        <route edges="183321025#0 183321025#1 183321025#2 183321025#3 180582575#2 180582577#2"/>
    </vehicle>
    <vehicle id="3" type="veh_passenger" depart="12.30" departLane="best">
        <route edges="61129731#1 23170021#6 23170021#7 23170021#8 163984489#0 163984489#1 182069803#3 166856386#1 185464347#0 185464347#2 126386653 23160146#0 23160146#1 23160146#2 23571274#0 23571274#1 448118528#1 61407901#0 182069787#1 625562664#1 625562664#2 621442432 311929814#1 -182069806#4 -182069806#3 -182069806#2 25769936 -25769936"/>
    </vehicle>
    <vehicle id="4" type="veh_passenger" depart="18.45" departLane="best">
        <route edges="23160146#1 23160146#2 23571274#0 23571274#1 448118528#1 61407901#0 182069787#1 182069786#1 182069786#5 182069786#7 182069786#8 291166433#0 23361564#1 23361564#6 23361564#8 23361564#9 23361564#10 23361564#11 23361564#12 80036959#1 182187278#0 -182187278#0"/>
    </vehicle>
    <vehicle id="5" type="veh_passenger" depart="24.60" departLane="best">
        <route edges="180582575#0 -180582575#1 178163878#1 -115994002#1 180362516#0 605662851#0 189588564#2 189588564#3 189588564#4 189588562#2 458296950 626726210#0 180534498#1 194262658 626726212#2 626726212#3 182031776 23246838#0 23246838#1"/>
    </vehicle>
    <vehicle id="6" type="veh_passenger" depart="30.74" departLane="best">
        <route edges="-182069806#3 182069806#3 182069806#4 182069800#0 182069800#1 621442431#1 603759585#0 182069786#5 182069786#7 182069786#8 291166433#0 189536169#0 194261694#0 194261694#2 194261692 194261693#0 194261693#1 -625506881#0 -625506882#3 -625506882#0 189588562#2 458296950 626726210#0 180534498#1"/>
    </vehicle>
    <vehicle id="7" type="veh_passenger" depart="36.89" departLane="best">
        <route edges="26585791#1 26585791#2 26585791#3 26585791#5 30064935#2 24515739#2 5117190#0 119086616#0 119086616#7 189585366 26586731#1 26586731#3 625566101 625562681#0 182069785#0 182069785#1 182069785#2 189536164#0 189536164#1 291166426#1 291166426#4 182069787#1 182069786#1 182069786#5 182069786#7 182069786#8 291166433#0 189536169#0 194261694#0 194261694#2 194261692 194261693#0 194261693#1 -625506881#0 -625506882#3 -625506882#0 283746975#1 180542447#0 180542447#1 180542447#3 180542447#5 180542447#6 -189678856#4 23458726#0 23458726#1 23458714#2"/>
    </vehicle>
    <vehicle id="8" type="veh_passenger" depart="43.04" departLane="best">
        <route edges="180582575#2 -180582575#2 -180582575#1 23215342#0 187638464#0 187638464#2 636388334#0 636388334#1 636388334#2 625525185#1 625525185#2 625525186#0 625525186#1 625525186#3 625562662#1 625562662#5 625562662#9 625562662#12 625562662#16 625562662#17 625562662#18 625562662#19 625562662#21 625562679#1 625562679#2 625562679#3 291166430#0 291166430#3 291166430#4 189585367#0 624263836#2 5117191#2 183474717 24515739#2 183474716 23160157 24521357#0"/>
    </vehicle>
    <vehicle id="9" type="veh_passenger" depart="49.19" departLane="best" departSpeed="max">
        <route edges="460751557#0 460751557#2 23164661#0 183321025#1 183321025#2 183321025#3 180582575#2 180582577#2 180582572#0 -180582572#1"/>
    </vehicle>

</routes>
