<?xml version="1.0" ?><additional xmlns:xsi="http://www.w3.org/2001/XMLSchema-instance" xsi:noNamespaceSchemaLocation="http://sumo.dlr.de/xsd/additional_file.xsd">
    <location convBoundary="-1386.86,-17589.77,19038.59,22514.59" netOffset="-690326.03,-4966370.77" origBoundary="-0.601822,44.661915,-0.359090,45.028080" projParameter="+proj=utm +zone=30 +ellps=WGS84 +datum=WGS84 +units=m +no_defs"/>

    <poly color="207,245,201" fill="1" id="109630418" layer="-2.00" shape="1111.481131,941.970911 1191.004128,950.802610 1197.996927,904.425284 1210.064523,898.503443 1211.518524,897.234857 1212.582094,894.998443 1212.836048,893.115898 1212.695775,891.188235 1211.848030,889.372885 1203.778407,877.702447 1198.975055,878.003878 1120.274843,882.672118 1117.526840,901.068875 1113.891218,925.354130 1111.481131,941.970911" type="leisure.common"/>
    <poly color="255,230,230" fill="1" id="115507119" layer="-1.00" shape="1638.534619,1095.077695 1619.251304,1093.344756 1620.582966,1085.056884 1620.748622,1085.072956 1621.154339,1082.616800 1639.998959,1085.793136 1639.247492,1090.551582 1638.534619,1095.077695" type="building.yes"/>
    <poly color="255,230,230" fill="1" id="115507122" layer="-1.00" shape="1554.059158,834.594026 1545.540444,868.673035 1542.108433,867.825529 1537.308679,866.681424 1538.299412,862.385976 1538.908057,862.404167 1539.932338,858.309853 1546.409041,833.787223 1546.740699,833.808253 1551.014987,834.269555 1554.059158,834.594026" type="building.yes"/>
    <poly color="255,230,230" fill="1" id="115507126" layer="-1.00" shape="1626.722746,1045.614455 1627.208573,1042.860498 1628.471594,1042.953857 1627.253212,1042.161373 1628.129418,1036.405999 1647.387463,1038.460633 1646.514561,1044.104920 1645.788129,1048.819640 1626.722746,1045.614455" type="building.yes"/>
    <poly color="255,230,230" fill="1" id="115507128" layer="-1.00" shape="1622.781545,839.806042 1625.751980,839.950449 1628.422045,840.085876 1628.177304,854.621436 1633.695570,855.019923 1633.727583,856.066010 1633.649320,860.800112 1629.430582,860.862981 1629.471380,855.794207 1627.424116,855.732993 1627.325332,860.888980 1623.983992,860.978087 1623.430014,860.983760 1622.781545,839.806042" type="building.yes"/>
    <poly color="255,230,230" fill="1" id="115507132" layer="-1.00" shape="1555.041069,938.324698 1557.871772,938.642794 1556.997036,946.733082 1555.781848,950.332477 1554.465352,952.027598 1550.957301,955.313856 1547.274145,956.782583 1542.749732,957.281105 1538.570048,956.833750 1532.748105,955.481199 1525.365142,953.681740 1514.203743,950.979969 1513.487043,960.931755 1505.261386,960.063318 1505.988444,955.059529 1509.261907,932.353516 1536.266254,934.650398 1536.971320,926.677341 1540.110964,926.982426 1551.706796,928.385253 1556.491486,928.973001 1555.041069,938.324698" type="building.yes"/>
    <poly color="255,230,230" fill="1" id="115507136" layer="-1.00" shape="1502.726013,977.132124 1528.883207,978.914463 1528.266207,985.000025 1521.407240,984.728331 1515.238669,984.121487 1501.917467,982.744991 1502.726013,977.132124" type="building.yes"/>
    <poly color="255,230,230" fill="1" id="115507139" layer="-1.00" shape="1545.540444,868.673035 1543.302580,877.901133 1534.794122,877.491185 1535.177173,876.057241 1535.862174,873.520482 1531.270532,872.560495 1518.280754,871.205002 1518.982121,866.267157 1531.683696,867.736340 1531.653280,868.224640 1532.638683,868.343037 1536.715004,868.809532 1536.773656,868.700101 1537.424415,868.897444 1536.482564,872.616196 1540.702427,873.309352 1541.573409,869.844205 1542.108433,867.825529 1545.540444,868.673035" type="building.yes"/>
    <poly color="255,230,230" fill="1" id="115507142" layer="-1.00" shape="1550.530166,967.486858 1548.550868,980.769781 1534.830461,979.514705 1528.883207,978.914463 1502.726013,977.132124 1505.261386,960.063318 1513.487043,960.931755 1526.839243,962.331435 1526.517125,965.168119 1528.882123,965.450048 1550.530166,967.486858" type="building.yes"/>
    <poly color="255,230,230" fill="1" id="115507145" layer="-1.00" shape="1559.981774,843.699124 1564.384326,844.898082 1564.548993,844.947478 1564.713659,844.996874 1564.814757,845.055487 1564.978428,845.138208 1565.086434,845.230384 1565.242200,845.312869 1565.349875,845.416153 1565.449645,845.519201 1565.548751,845.644465 1565.656426,845.747749 1565.755864,845.861906 1565.808539,845.952427 1565.852314,846.076038 1565.896088,846.199649 1565.947767,846.323496 1565.991542,846.447107 1566.034985,846.581826 1566.023428,846.703783 1566.019111,846.848194 1566.061890,847.005130 1566.050001,847.138195 1565.982116,847.291824 1565.970227,847.424889 1565.910579,847.567646 1565.843359,847.699057 1565.776138,847.830469 1565.708918,847.961880 1565.650598,848.060203 1565.584041,848.169397 1565.470058,848.277174 1565.404498,848.353043 1565.291179,848.438603 1565.170287,848.512819 1565.057632,848.576162 1564.944976,848.639505 1564.825081,848.680395 1564.713090,848.721521 1564.545767,848.760993 1564.434440,848.779902 1564.259545,848.808030 1564.148882,848.804722 1563.982887,848.799760 1563.872224,848.796453 1563.714798,848.769510 1563.549468,848.742332 1559.080363,847.652568 1559.981774,843.699124" type="building.yes"/>
    <poly color="255,230,230" fill="1" id="115507152" layer="-1.00" shape="1503.377818,1076.839160 1508.187502,1077.116311 1515.357558,1077.564070 1514.271015,1093.008412 1498.445405,1091.523711 1486.287941,1090.393259 1485.767175,1089.288095 1486.241840,1086.111298 1486.850067,1082.171322 1487.227809,1082.238202 1503.150141,1082.869647 1503.377818,1076.839160" type="building.yes"/>
    <poly color="128,255,128" fill="1" id="115507152#1" layer="-1.00" shape="1503.377818,1076.839160 1508.187502,1077.116311 1515.357558,1077.564070 1514.271015,1093.008412 1498.445405,1091.523711 1486.287941,1090.393259 1485.767175,1089.288095 1486.241840,1086.111298 1486.850067,1082.171322 1487.227809,1082.238202 1503.150141,1082.869647 1503.377818,1076.839160" type="historic.building"/>
    <poly color="255,230,230" fill="1" id="115507154" layer="-1.00" shape="1651.921151,853.785971 1645.693012,852.521241 1645.701504,841.125126 1648.443373,841.240472 1651.287668,841.370000 1651.594720,846.182335 1651.668435,849.008616 1651.921151,853.785971" type="building.yes"/>
    <poly color="255,230,230" fill="1" id="115507157" layer="-1.00" shape="1617.861263,1028.972067 1619.288526,1016.428703 1632.845515,1017.590130 1632.263755,1023.287598 1630.166198,1023.058099 1629.633405,1026.588941 1625.280538,1026.114111 1624.830973,1030.036586 1617.861263,1028.972067" type="building.yes"/>
    <poly color="255,230,230" fill="1" id="115507158" layer="-1.00" shape="1548.550868,980.769781 1548.445659,981.378148 1547.809297,985.728660 1547.780272,985.905687 1540.697993,985.694008 1534.625208,985.323494 1534.293890,985.291355 1529.592142,985.106362 1529.767082,983.488304 1530.859335,982.942791 1534.415825,983.593884 1534.830461,979.514705 1548.550868,980.769781" type="building.yes"/>
    <poly color="255,230,230" fill="1" id="115507162" layer="-1.00" shape="1555.257371,1035.372583 1556.609744,1026.918546 1561.562941,1027.689234 1560.392424,1035.881864 1555.257371,1035.372583" type="building.yes"/>
    <poly color="255,230,230" fill="1" id="115507163" layer="-1.00" shape="1611.741665,839.120177 1611.995345,862.654308 1609.772525,862.643443 1609.885177,855.964649 1606.124300,855.796617 1606.775372,838.782685 1609.412491,838.961593 1611.741665,839.120177" type="building.yes"/>
    <poly color="255,230,230" fill="1" id="115507164" layer="-1.00" shape="1654.808923,887.383218 1659.827851,887.811270 1659.574018,891.272623 1654.564991,890.778157 1654.808923,887.383218" type="building.yes"/>
    <poly color="255,230,230" fill="1" id="115507166" layer="-1.00" shape="1560.006335,908.520136 1557.984618,920.045081 1546.187445,919.025369 1540.789792,918.563848 1511.631455,916.069162 1513.268572,905.233174 1540.632448,907.151668 1551.613892,907.935737 1560.006335,908.520136" type="building.yes"/>
    <poly color="255,230,230" fill="1" id="115507167" layer="-1.00" shape="1611.741665,839.120177 1615.003239,839.317757 1617.759589,839.477996 1617.789341,849.596636 1614.635446,849.502339 1615.031998,856.085173 1618.197115,856.068622 1618.902197,868.208766 1619.199443,870.174493 1611.908263,869.800840 1611.873457,868.054209 1611.995345,862.654308 1611.741665,839.120177" type="building.yes"/>
    <poly color="255,230,230" fill="1" id="115507168" layer="-1.00" shape="1536.021574,833.243290 1532.218721,844.803956 1522.047950,844.422179 1522.854861,838.864857 1523.563141,833.960574 1523.633411,833.462346 1532.601843,833.307865 1536.021574,833.243290" type="building.yes"/>
    <poly color="255,230,230" fill="1" id="115507169" layer="-1.00" shape="1533.305234,861.658563 1532.877714,865.904133 1529.195619,865.482777 1529.599028,861.514447 1533.305234,861.658563" type="building.yes"/>
    <poly color="255,230,230" fill="1" id="115507170" layer="-1.00" shape="1557.984618,920.045081 1556.491486,928.973001 1551.706796,928.385253 1550.549829,928.183896 1550.916054,924.136626 1545.840493,923.751438 1546.187445,919.025369 1557.984618,920.045081" type="building.yes"/>
    <poly color="255,230,230" fill="1" id="115507171" layer="-1.00" shape="1645.660255,854.410391 1641.853278,854.196486 1641.805666,851.026316 1640.102944,850.819743 1639.903911,840.807224 1641.894519,840.911221 1642.660592,840.956365 1645.701504,841.125126 1645.693012,852.521241 1645.660255,854.410391" type="building.yes"/>
    <poly color="255,230,230" fill="1" id="115507172" layer="-1.00" shape="1544.432083,1007.931233 1543.878880,1011.617126 1539.013817,1011.338297 1527.767457,1010.424019 1527.986678,1006.794854 1544.432083,1007.931233" type="building.yes"/>
    <poly color="255,230,230" fill="1" id="115507174" layer="-1.00" shape="1670.720344,878.608546 1657.222379,877.315401 1651.716356,876.772719 1641.247390,875.781438 1641.865754,871.241381 1630.846917,870.911898 1630.983539,875.074267 1624.256571,874.617404 1624.122270,870.377276 1624.140342,867.920648 1624.127988,867.275411 1628.745398,867.902682 1643.522446,869.812172 1652.972008,871.028695 1652.636613,874.042873 1657.044582,874.530481 1657.314750,871.581063 1670.335068,873.237949 1670.524751,875.889804 1670.720344,878.608546" type="building.yes"/>
    <poly color="255,230,230" fill="1" id="115507175" layer="-1.00" shape="1539.013817,1011.338297 1538.194769,1019.419132 1517.640285,1017.592928 1518.005509,1014.902072 1518.942071,1009.771123 1527.767457,1010.424019 1539.013817,1011.338297" type="building.yes"/>
    <poly color="255,230,230" fill="1" id="115507176" layer="-1.00" shape="1542.160686,909.754575 1541.991336,912.773718 1544.146918,912.915972 1544.317597,909.852395 1542.160686,909.754575" type="building.yes"/>
    <poly color="255,230,230" fill="1" id="115507177" layer="-1.00" shape="1600.481122,838.405497 1600.172421,857.464332 1599.807367,864.647026 1594.092559,863.942495 1594.676607,856.844177 1594.822866,854.068948 1597.699105,854.188290 1597.487663,848.822897 1595.055734,848.661247 1595.021977,843.968271 1595.350162,838.018618 1597.765622,838.202013 1600.481122,838.405497" type="building.yes"/>
    <poly color="255,230,230" fill="1" id="115507178" layer="-1.00" shape="1629.077828,1030.352588 1629.610621,1026.821746 1637.120745,1028.069214 1638.228791,1019.852487 1650.233874,1021.056491 1649.722262,1024.143229 1648.648887,1030.670993 1648.311113,1032.706680 1629.077828,1030.352588" type="building.yes"/>
    <poly color="255,230,230" fill="1" id="115507179" layer="-1.00" shape="1600.493147,924.273301 1618.336712,926.018696 1613.915826,970.682582 1612.866540,970.584498 1611.428658,984.806425 1614.126294,985.076095 1613.391574,992.714711 1611.797226,992.589213 1611.451955,995.669807 1614.425572,995.969966 1611.798428,1023.242703 1608.769493,1022.940890 1608.247402,1028.495603 1590.415680,1026.628270 1600.493147,924.273301" type="building.yes"/>
    <poly color="255,230,230" fill="1" id="115507180" layer="-1.00" shape="1629.375251,860.861326 1627.325332,860.888980 1627.424116,855.732993 1629.471380,855.794207 1629.375251,860.861326" type="building.yes"/>
    <poly color="255,230,230" fill="1" id="115507181" layer="-1.00" shape="1670.335068,873.237949 1657.314750,871.581063 1652.972008,871.028695 1643.522446,869.812172 1644.401205,863.178522 1645.605940,863.370205 1646.597587,863.544398 1651.360865,864.320587 1651.067250,867.525027 1657.828032,868.438784 1658.265523,865.449897 1669.279708,867.258036 1670.335068,873.237949" type="building.yes"/>
    <poly color="255,230,230" fill="1" id="115507182" layer="-1.00" shape="1606.111762,873.152073 1599.429230,872.796631 1599.807367,864.647026 1600.172421,857.464332 1606.092219,857.663550 1606.084657,868.236928 1606.111762,873.152073" type="building.yes"/>
    <poly color="255,230,230" fill="1" id="115507183" layer="-1.00" shape="1489.182402,1065.541181 1490.276190,1058.324669 1501.369362,1059.067532 1502.058532,1052.683929 1519.511453,1054.517463 1519.990215,1048.027506 1516.240343,1047.759784 1516.507790,1044.899229 1519.493939,1045.044062 1537.880576,1046.872194 1538.927572,1037.252714 1539.388116,1034.019905 1560.392424,1035.881864 1556.964351,1055.814759 1547.644049,1055.046961 1540.912953,1095.761498 1532.542208,1094.988745 1536.362867,1073.299749 1538.349750,1073.525909 1540.651943,1058.173494 1536.020454,1057.757107 1533.789042,1069.153487 1509.321856,1066.954637 1489.182402,1065.541181" type="building.yes"/>
    <poly color="255,230,230" fill="1" id="115507184" layer="-1.00" shape="1623.251545,1068.570246 1624.134722,1062.581593 1627.912147,1063.250467 1627.031292,1069.161359 1623.251545,1068.570246" type="building.yes"/>
    <poly color="255,230,230" fill="1" id="115507185" layer="-1.00" shape="1497.586295,1011.990373 1513.285965,1013.460179 1513.354323,1014.084852 1518.005509,1014.902072 1517.640285,1017.592928 1513.629285,1017.061681 1497.043347,1015.598747 1497.586295,1011.990373" type="building.yes"/>
    <poly color="255,230,230" fill="1" id="115507186" layer="-1.00" shape="1606.138604,881.780759 1599.058201,881.502368 1599.404786,873.084978 1599.429230,872.796631 1606.111762,873.152073 1606.138604,881.780759" type="building.yes"/>
    <poly color="255,230,230" fill="1" id="115507187" layer="-1.00" shape="1510.522903,924.308123 1536.971320,926.677341 1536.266254,934.650398 1509.261907,932.353516 1510.522903,924.308123" type="building.yes"/>
    <poly color="255,230,230" fill="1" id="115507189" layer="-1.00" shape="1514.264784,899.959468 1540.985499,901.691967 1544.956449,901.977425 1544.847064,903.519613 1540.922214,903.280007 1540.632448,907.151668 1513.268572,905.233174 1514.264784,899.959468" type="building.yes"/>
    <poly color="255,230,230" fill="1" id="115507190" layer="-1.00" shape="1619.199443,870.174493 1618.902197,868.208766 1620.242039,868.115406 1624.140342,867.920648 1624.122270,870.377276 1619.199443,870.174493" type="building.yes"/>
    <poly color="255,230,230" fill="1" id="115507191" layer="-1.00" shape="1633.727583,856.066010 1633.695570,855.019923 1633.897841,852.224132 1638.652362,852.499721 1638.541440,850.917590 1633.973703,850.480810 1634.603638,840.526434 1637.210466,840.659974 1639.903911,840.807224 1640.102944,850.819743 1641.805666,851.026316 1641.853278,854.196486 1641.886748,855.987551 1641.890328,857.455288 1633.727583,856.066010" type="building.yes"/>
    <poly color="255,230,230" fill="1" id="115507192" layer="-1.00" shape="1561.027359,902.946980 1560.006335,908.520136 1551.613892,907.935737 1551.861218,903.896031 1547.161734,903.633268 1547.278360,902.113533 1553.295561,902.493510 1561.027359,902.946980" type="building.yes"/>
    <poly color="255,230,230" fill="1" id="115507193" layer="-1.00" shape="1546.409041,833.787223 1539.932338,858.309853 1536.431773,857.638195 1534.189950,857.204289 1534.395783,855.876233 1535.853986,849.704628 1536.974907,845.023927 1539.827899,833.479348 1543.509744,833.644979 1546.409041,833.787223" type="building.yes"/>
    <poly color="255,230,230" fill="1" id="115507194" layer="-1.00" shape="1556.964351,1055.814759 1551.762163,1086.401649 1551.051409,1090.594280 1549.997334,1096.744606 1546.748443,1096.391773 1540.912953,1095.761498 1547.644049,1055.046961 1556.964351,1055.814759" type="building.yes"/>
    <poly color="255,230,230" fill="1" id="115507195" layer="-1.00" shape="1583.885270,845.992449 1574.947334,845.391718 1574.800947,847.377536 1572.094020,847.152082 1573.357004,835.337618 1576.533558,835.732768 1577.960291,835.908838 1580.908942,836.252704 1582.347167,836.573657 1584.395035,836.879479 1583.885270,845.992449" type="building.yes"/>
    <poly color="255,230,230" fill="1" id="115507197" layer="-1.00" shape="1534.794122,877.491185 1534.506384,878.383176 1517.290136,877.879793 1518.280754,871.205002 1531.270532,872.560495 1531.096209,875.746266 1535.177173,876.057241 1534.794122,877.491185" type="building.yes"/>
    <poly color="255,230,230" fill="1" id="115507198" layer="-1.00" shape="1563.103419,891.457015 1551.737285,890.572483 1549.928227,890.218216 1550.190417,884.622379 1563.332803,885.370987 1563.103419,891.457015" type="building.yes"/>
    <poly color="255,230,230" fill="1" id="115507199" layer="-1.00" shape="1622.358141,1074.636421 1623.251545,1068.570246 1627.031292,1069.161359 1628.786960,1069.447344 1628.329029,1072.591280 1629.700378,1072.765708 1630.213639,1069.623427 1630.489955,1069.642808 1642.221414,1071.527963 1641.783007,1074.283337 1641.285217,1077.437199 1622.358141,1074.636421" type="building.yes"/>
    <poly color="255,230,230" fill="1" id="115507200" layer="-1.00" shape="1669.279708,867.258036 1658.265523,865.449897 1651.360865,864.320587 1646.597587,863.544398 1645.605940,863.370205 1645.795919,862.308519 1646.844226,862.439933 1647.535592,858.369032 1668.570677,861.866638 1668.924694,864.579000 1669.279708,867.258036" type="building.yes"/>
    <poly color="255,230,230" fill="1" id="115507201" layer="-1.00" shape="1512.924783,1000.396385 1512.818205,1002.639116 1508.006142,1002.439723 1508.125270,1000.041709 1512.924783,1000.396385" type="building.yes"/>
    <poly color="255,230,230" fill="1" id="115507202" layer="-1.00" shape="1639.128674,941.872622 1634.719755,941.418350 1635.003390,939.870254 1639.341971,939.766502 1639.705458,936.341783 1641.518154,936.573883 1651.287779,937.666559 1666.159583,939.312103 1664.116029,950.502820 1638.470122,947.756805 1639.128674,941.872622" type="building.yes"/>
    <poly color="255,230,230" fill="1" id="115507203" layer="-1.00" shape="1654.449172,896.767517 1657.865816,897.069823 1657.638629,899.375659 1654.220657,899.117786 1654.449172,896.767517" type="building.yes"/>
    <poly color="255,230,230" fill="1" id="115507204" layer="-1.00" shape="1638.228791,1019.852487 1638.778010,1013.920560 1651.325843,1015.229743 1650.732530,1018.402985 1650.233874,1021.056491 1638.228791,1019.852487" type="building.yes"/>
    <poly color="255,230,230" fill="1" id="115507205" layer="-1.00" shape="1651.716356,876.772719 1657.222379,877.315401 1657.023088,880.011215 1651.518063,879.435208 1651.716356,876.772719" type="building.yes"/>
    <poly color="237,199,199" fill="1" id="115507206" layer="-1.00" shape="1638.778010,1013.920560 1620.283286,1011.999964 1626.081553,951.700307 1650.052521,953.840263 1649.727690,956.765810 1652.976982,957.107585 1653.411146,954.229782 1663.149790,955.299315 1658.971321,975.710060 1657.621064,976.681455 1657.294111,978.884241 1653.159877,978.504880 1653.907863,970.688768 1633.117696,969.066405 1631.365040,986.670033 1652.032726,989.211559 1652.888050,981.509841 1656.901392,981.963416 1657.171972,985.084663 1651.325843,1015.229743 1638.778010,1013.920560" type="amenity.bank"/>
    <poly color="255,230,230" fill="1" id="115507206#1" layer="-1.00" shape="1638.778010,1013.920560 1620.283286,1011.999964 1626.081553,951.700307 1650.052521,953.840263 1649.727690,956.765810 1652.976982,957.107585 1653.411146,954.229782 1663.149790,955.299315 1658.971321,975.710060 1657.621064,976.681455 1657.294111,978.884241 1653.159877,978.504880 1653.907863,970.688768 1633.117696,969.066405 1631.365040,986.670033 1652.032726,989.211559 1652.888050,981.509841 1656.901392,981.963416 1657.171972,985.084663 1651.325843,1015.229743 1638.778010,1013.920560" type="building.yes"/>
    <poly color="255,230,230" fill="1" id="115507207" layer="-1.00" shape="1514.271015,1093.008412 1515.357558,1077.564070 1508.187502,1077.116311 1508.674649,1072.727982 1509.321856,1066.954637 1533.789042,1069.153487 1536.020454,1057.757107 1540.651943,1058.173494 1538.349750,1073.525909 1536.362867,1073.299749 1532.542208,1094.988745 1527.984208,1094.496729 1523.410731,1093.993136 1518.829017,1093.500418 1514.271015,1093.008412" type="building.yes"/>
    <poly color="255,230,230" fill="1" id="115507208" layer="-1.00" shape="1636.238776,1051.213611 1638.644854,1051.708062 1638.161807,1055.162562 1635.657626,1054.509520 1636.238776,1051.213611" type="building.yes"/>
    <poly color="255,230,230" fill="1" id="115507209" layer="-1.00" shape="1563.598257,937.101729 1568.214016,892.788327 1595.190096,895.507102 1594.212028,905.729032 1596.745032,905.949297 1586.850545,1005.096518 1582.934990,1004.812686 1583.272343,1001.731854 1557.391093,999.190366 1559.174765,981.865617 1569.579995,982.865988 1570.774091,971.238476 1560.316168,970.147583 1560.502009,968.429785 1563.598257,937.101729" type="building.yes"/>
    <poly color="255,230,230" fill="1" id="115507210" layer="-1.00" shape="1628.129418,1036.405999 1628.727437,1032.810398 1629.077828,1030.352588 1648.311113,1032.706680 1647.785618,1035.993134 1647.387463,1038.460633 1628.129418,1036.405999" type="building.yes"/>
    <poly color="255,230,230" fill="1" id="115507211" layer="-1.00" shape="1619.567882,882.460231 1611.660168,882.068143 1611.761266,875.511306 1619.521527,875.543196 1619.567882,882.460231" type="building.yes"/>
    <poly color="255,230,230" fill="1" id="115507212" layer="-1.00" shape="1548.721389,878.185392 1548.589222,879.960385 1546.211972,879.822624 1546.288807,878.045976 1548.721389,878.185392" type="building.yes"/>
    <poly color="255,230,230" fill="1" id="115507213" layer="-1.00" shape="1667.928992,857.133241 1655.851474,854.637320 1656.942389,850.433829 1651.668435,849.008616 1651.594720,846.182335 1657.571778,847.906535 1666.968159,849.844183 1667.445122,853.471931 1667.928992,857.133241" type="building.collapsed"/>
    <poly color="255,230,230" fill="1" id="115507215" layer="-1.00" shape="1617.759589,839.477996 1620.151999,839.638474 1622.781545,839.806042 1623.430014,860.983760 1623.983992,860.978087 1624.081627,865.650737 1620.126663,865.888275 1620.242039,868.115406 1618.902197,868.208766 1618.197115,856.068622 1617.789341,849.596636 1617.759589,839.477996" type="building.yes"/>
    <poly color="255,230,230" fill="1" id="115507216" layer="-1.00" shape="1562.928298,878.787921 1555.073588,878.475316 1551.976699,878.327162 1553.459358,871.867212 1561.620627,872.511412 1561.832099,869.671422 1559.632064,869.427768 1561.545313,857.032346 1557.128224,856.055322 1558.112064,851.726316 1558.825170,848.779017 1559.080363,847.652568 1563.549468,848.742332 1563.714798,848.769510 1563.872224,848.796453 1563.982887,848.799760 1564.148882,848.804722 1564.259545,848.808030 1564.434440,848.779902 1564.545767,848.760993 1564.713090,848.721521 1564.825081,848.680395 1564.944976,848.639505 1565.057632,848.576162 1565.170287,848.512819 1565.291179,848.438603 1565.404498,848.353043 1565.470058,848.277174 1565.584041,848.169397 1565.650598,848.060203 1565.708918,847.961880 1565.776138,847.830469 1565.843359,847.699057 1565.910579,847.567646 1565.970227,847.424889 1565.982116,847.291824 1566.050001,847.138195 1566.061890,847.005130 1566.019111,846.848194 1566.023428,846.703783 1566.034985,846.581826 1565.991542,846.447107 1565.947767,846.323496 1565.896088,846.199649 1565.852314,846.076038 1565.808539,845.952427 1565.755864,845.861906 1565.656426,845.747749 1565.548751,845.644465 1565.449645,845.519201 1565.349875,845.416153 1565.242200,845.312869 1565.086434,845.230384 1564.978428,845.138208 1564.814757,845.055487 1564.713659,844.996874 1564.548993,844.947478 1564.384326,844.898082 1559.981774,843.699124 1562.081245,834.867156 1564.614342,834.820568 1567.519284,834.773978 1562.928298,878.787921" type="building.yes"/>
    <poly color="255,230,230" fill="1" id="115507218" layer="-1.00" shape="1586.301041,1011.039556 1582.277486,1010.663548 1582.934990,1004.812686 1586.850545,1005.096518 1586.301041,1011.039556" type="building.yes"/>
    <poly color="255,230,230" fill="1" id="115507219" layer="-1.00" shape="1527.986678,1006.794854 1527.767457,1010.424019 1518.942071,1009.771123 1498.152023,1008.149194 1498.725199,1004.853039 1510.094450,1005.626399 1509.974845,1007.246111 1514.993018,1007.696270 1515.125176,1005.921275 1527.986678,1006.794854" type="building.yes"/>
    <poly color="255,230,230" fill="1" id="115507220" layer="-1.00" shape="1641.518154,936.573883 1643.725013,912.512924 1645.545137,892.654279 1654.666069,893.482953 1671.275029,894.980321 1670.681042,904.524391 1669.524442,914.362951 1669.048478,918.373582 1666.656097,918.213085 1666.698314,914.156127 1652.843327,913.163625 1651.773580,931.210171 1664.789928,932.466672 1665.224775,928.243561 1667.631299,928.460072 1667.062076,932.679164 1666.159583,939.312103 1651.287779,937.666559 1641.518154,936.573883" type="building.yes"/>
    <poly color="255,230,230" fill="1" id="115507221" layer="-1.00" shape="1497.043347,1015.598747 1513.629285,1017.061681 1512.045518,1027.965975 1501.141061,1026.995249 1501.717580,1020.674990 1496.257110,1020.200506 1497.043347,1015.598747" type="building.yes"/>
    <poly color="255,230,230" fill="1" id="115507222" layer="-1.00" shape="1627.912147,1063.250467 1631.355933,1063.964957 1630.489955,1069.642808 1630.213639,1069.623427 1628.786960,1069.447344 1627.031292,1069.161359 1627.912147,1063.250467" type="building.yes"/>
    <poly color="255,230,230" fill="1" id="115507224" layer="-1.00" shape="1515.829563,888.632109 1539.161770,889.651826 1538.906830,895.270117 1515.111996,893.847431 1515.829563,888.632109" type="building.yes"/>
    <poly color="255,230,230" fill="1" id="115507225" layer="-1.00" shape="1643.934814,881.421004 1637.708492,880.890151 1638.058427,877.654039 1632.981835,877.302109 1632.632898,880.504895 1626.449683,880.119880 1626.261630,882.704846 1619.567882,882.460231 1619.521527,875.543196 1619.472176,874.018498 1624.256571,874.617404 1630.983539,875.074267 1641.247390,875.781438 1651.716356,876.772719 1651.518063,879.435208 1657.023088,880.011215 1657.222379,877.315401 1670.720344,878.608546 1670.931816,881.060922 1671.167928,883.747521 1660.256990,882.720753 1654.584645,882.184213 1643.934814,881.421004" type="building.yes"/>
    <poly color="255,230,230" fill="1" id="115507226" layer="-1.00" shape="1611.660168,882.068143 1606.138604,881.780759 1606.111762,873.152073 1606.084657,868.236928 1611.873457,868.054209 1611.908263,869.800840 1611.761266,875.511306 1611.660168,882.068143" type="building.yes"/>
    <poly color="255,230,230" fill="1" id="115507227" layer="-1.00" shape="1542.108433,867.825529 1541.573409,869.844205 1537.424415,868.897444 1536.773656,868.700101 1537.308679,866.681424 1542.108433,867.825529" type="building.yes"/>
    <poly color="255,230,230" fill="1" id="115507228" layer="-1.00" shape="1605.353871,882.624533 1633.396955,885.909051 1629.773159,916.876648 1628.070455,916.670077 1627.103430,925.991744 1600.652894,922.899394 1605.353871,882.624533" type="building.yes"/>
    <poly color="255,230,230" fill="1" id="115507229" layer="-1.00" shape="1633.626203,880.623543 1628.198685,883.541054 1626.261630,882.704846 1626.449683,880.119880 1632.632898,880.504895 1633.626203,880.623543" type="building.yes"/>
    <poly color="255,230,230" fill="1" id="115507230" layer="-1.00" shape="1562.081245,834.867156 1559.981774,843.699124 1559.080363,847.652568 1558.825170,848.779017 1554.682077,847.899132 1554.137623,850.762525 1558.112064,851.726316 1557.128224,856.055322 1555.726992,862.173034 1553.384737,861.658291 1550.105501,860.993241 1548.536763,867.950946 1554.172793,868.908805 1554.031048,869.416015 1553.459358,871.867212 1551.976699,878.327162 1548.721389,878.185392 1546.288807,878.045976 1543.302580,877.901133 1545.540444,868.673035 1554.059158,834.594026 1558.073987,834.736262 1562.081245,834.867156" type="building.yes"/>
    <poly color="255,230,230" fill="1" id="115507231" layer="-1.00" shape="1645.545137,892.654279 1643.011464,892.456211 1643.627245,886.415092 1654.808923,887.383218 1654.564991,890.778157 1659.574018,891.272623 1659.827851,887.811270 1671.228525,888.863803 1671.249818,891.855293 1671.275029,894.980321 1654.666069,893.482953 1645.545137,892.654279" type="building.yes"/>
    <poly color="255,230,230" fill="1" id="115507234" layer="-1.00" shape="1544.829868,1005.474837 1562.284905,1007.241832 1561.655321,1013.482675 1559.013358,1013.203572 1543.878880,1011.617126 1544.432083,1007.931233 1544.829868,1005.474837" type="building.yes"/>
    <poly color="255,230,230" fill="1" id="115507235" layer="-1.00" shape="1624.134722,1062.581593 1624.920588,1057.201544 1643.971056,1060.639766 1643.540885,1063.384269 1643.119947,1066.084573 1631.355933,1063.964957 1627.912147,1063.250467 1624.134722,1062.581593" type="building.yes"/>
    <poly color="255,230,230" fill="1" id="115507236" layer="-1.00" shape="1488.178738,1076.095905 1503.377818,1076.839160 1503.150141,1082.869647 1487.227809,1082.238202 1487.668140,1079.416168 1488.178738,1076.095905" type="building.yes"/>
    <poly color="255,230,230" fill="1" id="115507238" layer="-1.00" shape="1649.742068,943.057238 1651.997075,943.313687 1652.211499,941.963653 1654.091082,942.075454 1654.256489,940.512704 1650.130798,940.111366 1649.742068,943.057238" type="building.yes"/>