<?xml version="1.0" encoding="UTF-8"?>
<!-- generated on 2019-05-01 12:35:10.534653 by $Id$ via randomTrips.py
  options: -n osm.net.xml <doubleminus>seed 42 <doubleminus>fringe-factor 5 -p 6.148873 -r osm.passenger.rou.xml -o osm.passenger.trips.xml -e 3600 <doubleminus>vehicle-class passenger <doubleminus>vclass passenger <doubleminus>prefix veh <doubleminus>min-distance 300 <doubleminus>trip-attributes departLane="best" <doubleminus>fringe-start-attributes departSpeed="max" <doubleminus>allow-fringe.min-length 1000 <doubleminus>lanes <doubleminus>validate
-->
<routes xmlns:xsi="http://www.w3.org/2001/XMLSchema-instance" xsi:noNamespaceSchemaLocation="http://sumo.dlr.de/xsd/routes_file.xsd">
    <vType id="veh_passenger" vClass="passenger">
    </vType>
    <trip id="veh0" depart="0.00" departLane="best" departSpeed="max" from="26585732#0" to="-182069806#0" type="veh_passenger"/>
    <trip id="veh1" depart="6.15" departLane="best" departSpeed="max" from="183321025#0" to="180582577#2" type="veh_passenger"/>
    <trip id="veh2" depart="12.30" departLane="best" from="61129731#1" to="-25769936" type="veh_passenger"/>
    <trip id="veh3" depart="18.45" departLane="best" from="23160146#1" to="-182187278#0" type="veh_passenger"/>
    <trip id="veh4" depart="24.60" departLane="best" from="180582575#0" to="23246838#1" type="veh_passenger"/>
    <trip id="veh5" depart="30.74" departLane="best" from="-182069806#3" to="180534498#1" type="veh_passenger"/>
    <trip id="veh6" depart="36.89" departLane="best" from="26585791#1" to="23458714#2" type="veh_passenger"/>
    <trip id="veh7" depart="43.04" departLane="best" from="180582575#2" to="24521357#0" type="veh_passenger"/>
    <trip id="veh8" depart="49.19" departLane="best" departSpeed="max" from="460751557#0" to="-180582572#1" type="veh_passenger"/>
    <trip id="veh9" depart="55.34" departLane="best" from="458296950" to="26586939#1" type="veh_passenger"/>
    <trip id="veh10" depart="61.49" departLane="best" from="189678856#0" to="116388375#8" type="veh_passenger"/>
    <trip id="veh11" depart="67.64" departLane="best" departSpeed="max" from="522095571" to="245320925#4" type="veh_passenger"/>
    <trip id="veh12" depart="73.79" departLane="best" departSpeed="max" from="460751557#0" to="26646991#1" type="veh_passenger"/>
    <trip id="veh13" depart="79.94" departLane="best" from="23510383#0" to="626726212#3" type="veh_passenger"/>
    <trip id="veh14" depart="86.08" departLane="best" departSpeed="max" from="23126423" to="23510383#2" type="veh_passenger"/>
    <trip id="veh15" depart="92.23" departLane="best" from="503244726#0" to="25769924#0" type="veh_passenger"/>
    <trip id="veh16" depart="98.38" departLane="best" from="604385362#1" to="240861379#1" type="veh_passenger"/>
    <trip id="veh17" depart="104.53" departLane="best" from="26616546#2" to="-194261694#1" type="veh_passenger"/>
    <trip id="veh18" depart="110.68" departLane="best" from="-26586776" to="180626333#0" type="veh_passenger"/>
    <trip id="veh19" depart="116.83" departLane="best" departSpeed="max" from="-520887862#3" to="182069804#0" type="veh_passenger"/>
    <trip id="veh20" depart="122.98" departLane="best" departSpeed="max" from="26585732#0" to="194300927#1" type="veh_passenger"/>
    <trip id="veh21" depart="129.13" departLane="best" from="194472557#0" to="180557126#1" type="veh_passenger"/>
    <trip id="veh22" depart="135.28" departLane="best" from="182069806#4" to="625562662#19" type="veh_passenger"/>
    <trip id="veh23" depart="141.42" departLane="best" from="26585732#5" to="24582453" type="veh_passenger"/>
    <trip id="veh24" depart="147.57" departLane="best" from="119086616#7" to="26646991#1" type="veh_passenger"/>
    <trip id="veh25" depart="153.72" departLane="best" from="116388375#3" to="23157811#1" type="veh_passenger"/>
    <trip id="veh26" depart="159.87" departLane="best" departSpeed="max" from="8509046" to="25860634" type="veh_passenger"/>
    <trip id="veh27" depart="166.02" departLane="best" from="23653238#5" to="26586639#0" type="veh_passenger"/>
    <trip id="veh29" depart="178.32" departLane="best" from="180626333#1" to="-189215217" type="veh_passenger"/>
    <trip id="veh30" depart="184.47" departLane="best" departSpeed="max" from="187673068#0" to="182069791" type="veh_passenger"/>
    <trip id="veh31" depart="190.62" departLane="best" from="180542447#3" to="625562664#1" type="veh_passenger"/>
    <trip id="veh32" depart="196.76" departLane="best" from="26586363#0" to="23160085#3" type="veh_passenger"/>
    <trip id="veh33" depart="202.91" departLane="best" from="625525186#0" to="23169940#0" type="veh_passenger"/>
    <trip id="veh34" depart="209.06" departLane="best" from="182069806#2" to="180680375#1" type="veh_passenger"/>
    <trip id="veh35" depart="215.21" departLane="best" from="23815512#4" to="182069786#7" type="veh_passenger"/>
    <trip id="veh36" depart="221.36" departLane="best" departSpeed="max" from="24515888" to="61129729#2" type="veh_passenger"/>
    <trip id="veh37" depart="227.51" departLane="best" from="23157974#6" to="180582572#0" type="veh_passenger"/>
    <trip id="veh38" depart="233.66" departLane="best" from="85144005" to="23300015#2" type="veh_passenger"/>
    <trip id="veh39" depart="239.81" departLane="best" from="-563668691#2" to="25803468#4" type="veh_passenger"/>
    <trip id="veh40" depart="245.95" departLane="best" from="324472806#1" to="23161864#1" type="veh_passenger"/>
    <trip id="veh41" depart="252.10" departLane="best" from="-23300033#1" to="23157970#1" type="veh_passenger"/>
    <trip id="veh42" depart="258.25" departLane="best" from="8509116" to="23361564#11" type="veh_passenger"/>
    <trip id="veh43" depart="264.40" departLane="best" from="626732218#6" to="603759585#0" type="veh_passenger"/>
    <trip id="veh44" depart="270.55" departLane="best" from="-180626333#1" to="26616546#1" type="veh_passenger"/>
    <trip id="veh45" depart="276.70" departLane="best" from="-563668691#4" to="23163004#4" type="veh_passenger"/>
    <trip id="veh46" depart="282.85" departLane="best" from="604385374#1" to="182069786#7" type="veh_passenger"/>
    <trip id="veh47" depart="289.00" departLane="best" from="23300035#2" to="165332329" type="veh_passenger"/>
    <trip id="veh48" depart="295.15" departLane="best" from="625525185#2" to="604385365" type="veh_passenger"/>
    <trip id="veh49" depart="301.29" departLane="best" from="185675480#0" to="25860630#8" type="veh_passenger"/>
    <trip id="veh50" depart="307.44" departLane="best" from="25803468#1" to="116388375#8" type="veh_passenger"/>
    <trip id="veh51" depart="313.59" departLane="best" from="291166426#1" to="23458684#1" type="veh_passenger"/>
    <trip id="veh52" depart="319.74" departLane="best" from="30064936#1" to="23361564#12" type="veh_passenger"/>
    <trip id="veh53" depart="325.89" departLane="best" from="-115994002#1" to="189536169#0" type="veh_passenger"/>
    <trip id="veh54" depart="332.04" departLane="best" from="-182031776" to="625562662#1" type="veh_passenger"/>
    <trip id="veh55" depart="338.19" departLane="best" from="604385376#0" to="503384935#2" type="veh_passenger"/>
    <trip id="veh56" depart="344.34" departLane="best" from="187643367#0" to="-23160085#5" type="veh_passenger"/>
    <trip id="veh57" depart="350.49" departLane="best" from="604385374#2" to="625562678#3" type="veh_passenger"/>
    <trip id="veh58" depart="356.63" departLane="best" from="-26586952#0" to="23170764#2" type="veh_passenger"/>
    <trip id="veh59" depart="362.78" departLane="best" from="-240861379#1" to="291166430#0" type="veh_passenger"/>
    <trip id="veh60" depart="368.93" departLane="best" from="291166430#0" to="-625574151#1" type="veh_passenger"/>
    <trip id="veh61" depart="375.08" departLane="best" from="23170021#8" to="23458741#1" type="veh_passenger"/>
    <trip id="veh62" depart="381.23" departLane="best" from="182069806#2" to="604385373#0" type="veh_passenger"/>
    <trip id="veh63" depart="387.38" departLane="best" from="23160146#2" to="180557126#1" type="veh_passenger"/>
    <trip id="veh64" depart="393.53" departLane="best" from="23510383#4" to="26646991#1" type="veh_passenger"/>
    <trip id="veh65" depart="399.68" departLane="best" from="8509115" to="26543932" type="veh_passenger"/>
    <trip id="veh66" depart="405.83" departLane="best" from="23164510#0" to="23300120" type="veh_passenger"/>
    <trip id="veh67" depart="411.97" departLane="best" from="-604385373#1" to="180626330" type="veh_passenger"/>
    <trip id="veh68" depart="418.12" departLane="best" from="189588564#4" to="24521357#0" type="veh_passenger"/>
    <trip id="veh69" depart="424.27" departLane="best" from="180626333#2" to="180582575#0" type="veh_passenger"/>
    <trip id="veh71" depart="436.57" departLane="best" from="180626333#1" to="61129731#2" type="veh_passenger"/>
    <trip id="veh72" depart="442.72" departLane="best" from="604385358#0" to="-23174701#3" type="veh_passenger"/>
    <trip id="veh74" depart="455.02" departLane="best" from="180542447#6" to="111205409#2" type="veh_passenger"/>
    <trip id="veh75" depart="461.17" departLane="best" from="625562678#1" to="23815512#1" type="veh_passenger"/>
    <trip id="veh76" depart="467.31" departLane="best" from="23170021#5" to="314117705#1" type="veh_passenger"/>
    <trip id="veh77" depart="473.46" departLane="best" departSpeed="max" from="460751557#0" to="178163877#1" type="veh_passenger"/>
    <trip id="veh78" depart="479.61" departLane="best" from="-30064935#2" to="23162842#1" type="veh_passenger"/>
    <trip id="veh79" depart="485.76" departLane="best" from="23160151" to="23169962#0" type="veh_passenger"/>
    <trip id="veh81" depart="498.06" departLane="best" departSpeed="max" from="23157986#0" to="189689028" type="veh_passenger"/>
    <trip id="veh82" depart="504.21" departLane="best" from="604385362#1" to="180680375#1" type="veh_passenger"/>
    <trip id="veh83" depart="510.36" departLane="best" from="166856386#1" to="23164661#2" type="veh_passenger"/>
    <trip id="veh84" depart="516.51" departLane="best" from="23160146#1" to="182069806#0" type="veh_passenger"/>
    <trip id="veh85" depart="522.65" departLane="best" from="23164661#3" to="603759585#0" type="veh_passenger"/>
    <trip id="veh86" depart="528.80" departLane="best" from="23597055#2" to="-23157986#3" type="veh_passenger"/>
    <trip id="veh87" depart="534.95" departLane="best" from="94177579#3" to="5117192#1" type="veh_passenger"/>
    <trip id="veh88" depart="541.10" departLane="best" from="626732218#11" to="625525186#3" type="veh_passenger"/>
    <trip id="veh89" depart="547.25" departLane="best" departSpeed="max" from="522095571" to="163984489#0" type="veh_passenger"/>
    <trip id="veh90" depart="553.40" departLane="best" from="23176481#0" to="180557126#1" type="veh_passenger"/>
    <trip id="veh91" depart="559.55" departLane="best" departSpeed="max" from="23157986#0" to="-23160085#6" type="veh_passenger"/>
    <trip id="veh92" depart="565.70" departLane="best" departSpeed="max" from="23126423" to="80036959#1" type="veh_passenger"/>
    <trip id="veh93" depart="571.85" departLane="best" from="182069806#2" to="314117705#1" type="veh_passenger"/>
    <trip id="veh94" depart="577.99" departLane="best" from="23169946#0" to="23161864#1" type="veh_passenger"/>
    <trip id="veh95" depart="584.14" departLane="best" from="626726211#0" to="8509115" type="veh_passenger"/>
    <trip id="veh96" depart="590.29" departLane="best" from="23653238#4" to="26598785" type="veh_passenger"/>
    <trip id="veh99" depart="608.74" departLane="best" from="23571274#0" to="283591101#0" type="veh_passenger"/>
    <trip id="veh100" depart="614.89" departLane="best" from="-23169955#0" to="24515863#0" type="veh_passenger"/>
    <trip id="veh101" depart="621.04" departLane="best" from="23300063#1" to="53212706#1" type="veh_passenger"/>
    <trip id="veh102" depart="627.19" departLane="best" from="115994656#1" to="625986823" type="veh_passenger"/>
    <trip id="veh103" depart="633.33" departLane="best" from="-26586776" to="174197384" type="veh_passenger"/>
    <trip id="veh104" depart="639.48" departLane="best" from="247504952#1" to="26585800#3" type="veh_passenger"/>
    <trip id="veh105" depart="645.63" departLane="best" from="180626333#7" to="-604385376#2" type="veh_passenger"/>
    <trip id="veh107" depart="657.93" departLane="best" from="247504952#1" to="25769924#1" type="veh_passenger"/>
    <trip id="veh109" depart="670.23" departLane="best" from="23458658" to="625562662#18" type="veh_passenger"/>
    <trip id="veh110" depart="676.38" departLane="best" from="180362516#0" to="26598785" type="veh_passenger"/>
    <trip id="veh111" depart="682.52" departLane="best" from="182031776" to="23160085#4" type="veh_passenger"/>
    <trip id="veh112" depart="688.67" departLane="best" from="26586423#3" to="185675468#0" type="veh_passenger"/>
    <trip id="veh113" depart="694.82" departLane="best" from="-25770643" to="23169940#0" type="veh_passenger"/>
    <trip id="veh114" depart="700.97" departLane="best" departSpeed="max" from="-26433931" to="180557126#1" type="veh_passenger"/>
    <trip id="veh115" depart="707.12" departLane="best" from="182069806#2" to="625562662#17" type="veh_passenger"/>
    <trip id="veh116" depart="713.27" departLane="best" from="604385376#2" to="604385373#2" type="veh_passenger"/>
    <trip id="veh117" depart="719.42" departLane="best" from="503384935#1" to="26586952#1" type="veh_passenger"/>
    <trip id="veh118" depart="725.57" departLane="best" from="25847780#1" to="8508966#0" type="veh_passenger"/>
    <trip id="veh120" depart="737.86" departLane="best" from="48018456#0" to="185675468#0" type="veh_passenger"/>
    <trip id="veh121" depart="744.01" departLane="best" departSpeed="max" from="26586423#0" to="625562662#21" type="veh_passenger"/>
    <trip id="veh122" depart="750.16" departLane="best" from="-604385376#0" to="-604385374#1" type="veh_passenger"/>
    <trip id="veh123" depart="756.31" departLane="best" departSpeed="max" from="-520887862#3" to="23510383#3" type="veh_passenger"/>
    <trip id="veh124" depart="762.46" departLane="best" departSpeed="max" from="183321025#0" to="245320925#7" type="veh_passenger"/>
    <trip id="veh125" depart="768.61" departLane="best" from="26646992#2" to="180542447#3" type="veh_passenger"/>
    <trip id="veh126" depart="774.76" departLane="best" from="26543938#1" to="182069786#7" type="veh_passenger"/>
    <trip id="veh127" depart="780.91" departLane="best" from="23215342#0" to="61129731#2" type="veh_passenger"/>
    <trip id="veh128" depart="787.06" departLane="best" from="520887862#1" to="-26586831#0" type="veh_passenger"/>
    <trip id="veh129" depart="793.20" departLane="best" from="23160151" to="182069800#1" type="veh_passenger"/>
    <trip id="veh130" depart="799.35" departLane="best" departSpeed="max" from="26585732#0" to="182069786#5" type="veh_passenger"/>
    <trip id="veh131" depart="805.50" departLane="best" from="283591101#0" to="23510383#1" type="veh_passenger"/>
    <trip id="veh133" depart="817.80" departLane="best" departSpeed="max" from="-26433931" to="604385374#1" type="veh_passenger"/>
    <trip id="veh134" depart="823.95" departLane="best" from="624263836#3" to="23458717#0" type="veh_passenger"/>
    <trip id="veh136" depart="836.25" departLane="best" from="111205409#3" to="-625562680#2" type="veh_passenger"/>
    <trip id="veh137" depart="842.40" departLane="best" from="187643367#1" to="61129729#4" type="veh_passenger"/>
    <trip id="veh139" depart="854.69" departLane="best" departSpeed="max" from="623788390#0" to="180557126#1" type="veh_passenger"/>
    <trip id="veh140" depart="860.84" departLane="best" from="182069786#8" to="-520887862#1" type="veh_passenger"/>
    <trip id="veh141" depart="866.99" departLane="best" from="30064936#3" to="604385374#1" type="veh_passenger"/>
    <trip id="veh142" depart="873.14" departLane="best" from="23157986#6" to="25769924#3" type="veh_passenger"/>
    <trip id="veh143" depart="879.29" departLane="best" from="115507952#2" to="625562662#12" type="veh_passenger"/>
    <trip id="veh144" depart="885.44" departLane="best" departSpeed="max" from="604385368" to="626732218#11" type="veh_passenger"/>
    <trip id="veh145" depart="891.59" departLane="best" from="460751557#2" to="604385373#2" type="veh_passenger"/>
    <trip id="veh147" depart="903.88" departLane="best" from="189588562#2" to="625562662#16" type="veh_passenger"/>
    <trip id="veh148" depart="910.03" departLane="best" from="448118528#1" to="604385362#0" type="veh_passenger"/>
    <trip id="veh149" depart="916.18" departLane="best" from="460751557#2" to="182069787#1" type="veh_passenger"/>
    <trip id="veh150" depart="922.33" departLane="best" from="604385373#0" to="563668691#3" type="veh_passenger"/>
    <trip id="veh151" depart="928.48" departLane="best" from="23169962#0" to="185675468#6" type="veh_passenger"/>
    <trip id="veh152" depart="934.63" departLane="best" from="371964284#1" to="180626331#2" type="veh_passenger"/>
    <trip id="veh153" depart="940.78" departLane="best" from="-182069806#0" to="178163878#1" type="veh_passenger"/>
    <trip id="veh154" depart="946.93" departLane="best" from="189536169#0" to="604385362#1" type="veh_passenger"/>
    <trip id="veh155" depart="953.08" departLane="best" from="626732218#1" to="182069806#0" type="veh_passenger"/>
    <trip id="veh156" depart="959.22" departLane="best" departSpeed="max" from="26585732#0" to="23160100#0" type="veh_passenger"/>
    <trip id="veh157" depart="965.37" departLane="best" departSpeed="max" from="8508967#0" to="23458658" type="veh_passenger"/>
    <trip id="veh158" depart="971.52" departLane="best" from="625562679#1" to="-604385374#1" type="veh_passenger"/>
    <trip id="veh159" depart="977.67" departLane="best" from="626732218#4" to="165332329" type="veh_passenger"/>
    <trip id="veh160" depart="983.82" departLane="best" from="626726212#3" to="182069786#8" type="veh_passenger"/>
    <trip id="veh161" depart="989.97" departLane="best" from="-522095571" to="23163004#3" type="veh_passenger"/>
    <trip id="veh162" depart="996.12" departLane="best" departSpeed="max" from="26647605#0" to="187638464#2" type="veh_passenger"/>
    <trip id="veh163" depart="1002.27" departLane="best" from="25769936" to="23300035#0" type="veh_passenger"/>
    <trip id="veh165" depart="1014.56" departLane="best" from="182069793#1" to="26587266#0" type="veh_passenger"/>
    <trip id="veh166" depart="1020.71" departLane="best" from="-163984487#1" to="625525186#1" type="veh_passenger"/>
    <trip id="veh167" depart="1026.86" departLane="best" from="23510383#2" to="26598785" type="veh_passenger"/>
    <trip id="veh168" depart="1033.01" departLane="best" from="283591101#0" to="26585800#3" type="veh_passenger"/>
    <trip id="veh169" depart="1039.16" departLane="best" from="194299561#1" to="-23174701#2" type="veh_passenger"/>
    <trip id="veh170" depart="1045.31" departLane="best" departSpeed="max" from="26586423#0" to="189588562#2" type="veh_passenger"/>
    <trip id="veh171" depart="1051.46" departLane="best" departSpeed="max" from="187673068#0" to="520887862#2" type="veh_passenger"/>
    <trip id="veh172" depart="1057.61" departLane="best" from="26647027" to="185675468#0" type="veh_passenger"/>
    <trip id="veh173" depart="1063.76" departLane="best" departSpeed="max" from="187673068#0" to="23160144#1" type="veh_passenger"/>
    <trip id="veh174" depart="1069.90" departLane="best" departSpeed="max" from="23157986#0" to="185464347#2" type="veh_passenger"/>
    <trip id="veh175" depart="1076.05" departLane="best" from="625562679#2" to="26585800#3" type="veh_passenger"/>
    <trip id="veh177" depart="1088.35" departLane="best" from="185756569#0" to="23458726#1" type="veh_passenger"/>
    <trip id="veh178" depart="1094.50" departLane="best" from="-115994002#1" to="182198513#2" type="veh_passenger"/>
    <trip id="veh180" depart="1106.80" departLane="best" from="26586257#0" to="23169958" type="veh_passenger"/>
    <trip id="veh181" depart="1112.95" departLane="best" from="23164661#2" to="180557126#1" type="veh_passenger"/>
    <trip id="veh182" depart="1119.09" departLane="best" from="23170021#6" to="61129729#4" type="veh_passenger"/>
    <trip id="veh184" depart="1131.39" departLane="best" departSpeed="max" from="-26586831#1" to="23300063#0" type="veh_passenger"/>
    <trip id="veh185" depart="1137.54" departLane="best" from="26543936" to="189588564#4" type="veh_passenger"/>
    <trip id="veh187" depart="1149.84" departLane="best" from="26586423#3" to="180626330" type="veh_passenger"/>
    <trip id="veh188" depart="1155.99" departLane="best" from="178163877#1" to="-182069797#3" type="veh_passenger"/>
    <trip id="veh189" depart="1162.14" departLane="best" from="182069786#1" to="23170003#4" type="veh_passenger"/>
    <trip id="veh190" depart="1168.29" departLane="best" departSpeed="max" from="522095571" to="-23299997#1" type="veh_passenger"/>
    <trip id="veh191" depart="1174.43" departLane="best" from="23160103#0" to="25847780#2" type="veh_passenger"/>
    <trip id="veh192" depart="1180.58" departLane="best" from="174197384" to="26586874#1" type="veh_passenger"/>
    <trip id="veh193" depart="1186.73" departLane="best" from="23299997#1" to="180680375#1" type="veh_passenger"/>
    <trip id="veh194" depart="1192.88" departLane="best" from="26586363#1" to="-180582572#1" type="veh_passenger"/>
    <trip id="veh195" depart="1199.03" departLane="best" departSpeed="max" from="-520887862#3" to="23161864#1" type="veh_passenger"/>
    <trip id="veh196" depart="1205.18" departLane="best" from="163984489#0" to="625566101" type="veh_passenger"/>
    <trip id="veh197" depart="1211.33" departLane="best" from="23361564#6" to="-23157986#3" type="veh_passenger"/>
    <trip id="veh198" depart="1217.48" departLane="best" from="182069786#7" to="520887862#2" type="veh_passenger"/>
    <trip id="veh200" depart="1229.77" departLane="best" from="247504952#2" to="625562679#1" type="veh_passenger"/>
    <trip id="veh201" depart="1235.92" departLane="best" from="61129731#0" to="247504952#2" type="veh_passenger"/>
    <trip id="veh202" depart="1242.07" departLane="best" from="26647027" to="23246838#1" type="veh_passenger"/>
    <trip id="veh203" depart="1248.22" departLane="best" from="503244726#1" to="23458726#1" type="veh_passenger"/>
    <trip id="veh204" depart="1254.37" departLane="best" from="622322714#1" to="26649267#4" type="veh_passenger"/>
    <trip id="veh205" depart="1260.52" departLane="best" from="23170021#8" to="182069786#1" type="veh_passenger"/>
    <trip id="veh206" depart="1266.67" departLane="best" from="182069786#5" to="25860630#5" type="veh_passenger"/>
    <trip id="veh207" depart="1272.82" departLane="best" from="25862004" to="182069795#7" type="veh_passenger"/>
    <trip id="veh208" depart="1278.97" departLane="best" from="-26433937#1" to="182198513#0" type="veh_passenger"/>
    <trip id="veh210" depart="1291.26" departLane="best" from="23510383#5" to="113990792#5" type="veh_passenger"/>
    <trip id="veh211" depart="1297.41" departLane="best" from="180626333#2" to="26586831#0" type="veh_passenger"/>
    <trip id="veh212" depart="1303.56" departLane="best" from="26616614" to="-23165926#4" type="veh_passenger"/>
    <trip id="veh213" depart="1309.71" departLane="best" from="23160085#3" to="23458712#1" type="veh_passenger"/>
    <trip id="veh214" depart="1315.86" departLane="best" from="23160103#6" to="180542447#6" type="veh_passenger"/>
    <trip id="veh215" depart="1322.01" departLane="best" from="23160144#1" to="61129731#2" type="veh_passenger"/>
    <trip id="veh216" depart="1328.16" departLane="best" departSpeed="max" from="24515888" to="26586840#1" type="veh_passenger"/>
    <trip id="veh217" depart="1334.31" departLane="best" from="563668691#4" to="291166433#0" type="veh_passenger"/>
    <trip id="veh218" depart="1340.45" departLane="best" departSpeed="max" from="23126423" to="-180582572#1" type="veh_passenger"/>
    <trip id="veh219" depart="1346.60" departLane="best" from="53214518" to="625562679#3" type="veh_passenger"/>
    <trip id="veh220" depart="1352.75" departLane="best" from="23160144#0" to="283591101#0" type="veh_passenger"/>
    <trip id="veh221" depart="1358.90" departLane="best" departSpeed="max" from="23571332" to="245320925#2" type="veh_passenger"/>
    <trip id="veh222" depart="1365.05" departLane="best" from="23163004#2" to="-182187278#0" type="veh_passenger"/>
    <trip id="veh223" depart="1371.20" departLane="best" from="189588564#3" to="26586363#0" type="veh_passenger"/>
    <trip id="veh224" depart="1377.35" departLane="best" from="23157986#4" to="163984487#0" type="veh_passenger"/>
    <trip id="veh225" depart="1383.50" departLane="best" from="23170003#2" to="-625562680#2" type="veh_passenger"/>
    <trip id="veh226" depart="1389.65" departLane="best" from="25860630#15" to="-182069806#2" type="veh_passenger"/>
    <trip id="veh227" depart="1395.79" departLane="best" from="23157971#4" to="23653238#1" type="veh_passenger"/>
    <trip id="veh228" depart="1401.94" departLane="best" from="-182069806#4" to="26433931" type="veh_passenger"/>
    <trip id="veh229" depart="1408.09" departLane="best" from="-604385376#2" to="23169946#1" type="veh_passenger"/>
    <trip id="veh230" depart="1414.24" departLane="best" from="-23162842#1" to="23157811#1" type="veh_passenger"/>
    <trip id="veh231" depart="1420.39" departLane="best" from="180542447#3" to="189585366" type="veh_passenger"/>
    <trip id="veh232" depart="1426.54" departLane="best" from="288796832#1" to="23157811#1" type="veh_passenger"/>
    <trip id="veh233" depart="1432.69" departLane="best" departSpeed="max" from="287847852" to="503384935#2" type="veh_passenger"/>
    <trip id="veh234" depart="1438.84" departLane="best" from="182069787#1" to="-24515888" type="veh_passenger"/>
    <trip id="veh235" depart="1444.99" departLane="best" from="-180626333#7" to="23458684#1" type="veh_passenger"/>
    <trip id="veh236" depart="1451.13" departLane="best" from="26585791#1" to="314117704#3" type="veh_passenger"/>
    <trip id="veh237" depart="1457.28" departLane="best" from="26585791#3" to="287478069" type="veh_passenger"/>
    <trip id="veh238" depart="1463.43" departLane="best" from="625574151#2" to="180542447#0" type="veh_passenger"/>
    <trip id="veh239" depart="1469.58" departLane="best" from="-182031776" to="116388375#7" type="veh_passenger"/>
    <trip id="veh240" depart="1475.73" departLane="best" departSpeed="max" from="-604385373#2" to="26585800#3" type="veh_passenger"/>
    <trip id="veh241" depart="1481.88" departLane="best" from="240861039#2" to="180582572#0" type="veh_passenger"/>
    <trip id="veh242" depart="1488.03" departLane="best" from="117239571#0" to="245320925#7" type="veh_passenger"/>
    <trip id="veh243" depart="1494.18" departLane="best" from="287478069" to="-604385373#1" type="veh_passenger"/>
    <trip id="veh244" depart="1500.33" departLane="best" from="48018456#2" to="626726210#0" type="veh_passenger"/>
    <trip id="veh245" depart="1506.47" departLane="best" from="-522095571" to="-182069806#1" type="veh_passenger"/>
    <trip id="veh246" depart="1512.62" departLane="best" departSpeed="max" from="187673068#0" to="26585800#3" type="veh_passenger"/>
    <trip id="veh247" depart="1518.77" departLane="best" from="26646991#0" to="-23300035#1" type="veh_passenger"/>
    <trip id="veh248" depart="1524.92" departLane="best" from="26586943#1" to="25803468#4" type="veh_passenger"/>
    <trip id="veh249" depart="1531.07" departLane="best" departSpeed="max" from="-520887862#3" to="314117703#0" type="veh_passenger"/>
    <trip id="veh250" depart="1537.22" departLane="best" from="53212706#1" to="24521357#4" type="veh_passenger"/>
    <trip id="veh251" depart="1543.37" departLane="best" from="-604385373#1" to="79989582#1" type="veh_passenger"/>
    <trip id="veh253" depart="1555.66" departLane="best" from="23161867#0" to="221615627#2" type="veh_passenger"/>
    <trip id="veh254" depart="1561.81" departLane="best" from="23300121" to="189689029#1" type="veh_passenger"/>
    <trip id="veh255" depart="1567.96" departLane="best" departSpeed="max" from="-520887862#3" to="625986823" type="veh_passenger"/>
    <trip id="veh256" depart="1574.11" departLane="best" from="26543938#2" to="503244729#1" type="veh_passenger"/>
    <trip id="veh257" depart="1580.26" departLane="best" from="26649257#0" to="626726210#0" type="veh_passenger"/>
    <trip id="veh258" depart="1586.41" departLane="best" from="182198513#0" to="460751557#4" type="veh_passenger"/>
    <trip id="veh259" depart="1592.56" departLane="best" from="23510383#2" to="23170022" type="veh_passenger"/>
    <trip id="veh260" depart="1598.71" departLane="best" from="23163004#0" to="26646992#2" type="veh_passenger"/>
    <trip id="veh261" depart="1604.86" departLane="best" from="182187278#0" to="520887862#2" type="veh_passenger"/>
    <trip id="veh262" depart="1611.00" departLane="best" from="503244726#1" to="-24805904" type="veh_passenger"/>
    <trip id="veh263" depart="1617.15" departLane="best" from="605662851#0" to="180680375#0" type="veh_passenger"/>
    <trip id="veh264" depart="1623.30" departLane="best" from="23169966" to="247504951#2" type="veh_passenger"/>
    <trip id="veh265" depart="1629.45" departLane="best" departSpeed="max" from="23126423" to="-182187278#0" type="veh_passenger"/>
    <trip id="veh266" depart="1635.60" departLane="best" from="53212706#1" to="166858044" type="veh_passenger"/>
    <trip id="veh267" depart="1641.75" departLane="best" from="180542447#3" to="427689122#0" type="veh_passenger"/>
    <trip id="veh268" depart="1647.90" departLane="best" from="189678856#0" to="604385373#2" type="veh_passenger"/>
    <trip id="veh269" depart="1654.05" departLane="best" from="26598747#1" to="182069800#1" type="veh_passenger"/>
    <trip id="veh270" depart="1660.20" departLane="best" from="-180626333#0" to="625562678#4" type="veh_passenger"/>