<?xml version="1.0" encoding="UTF-8"?>

<!-- generated on Fri Apr  5 10:14:16 2019 by Eclipse SUMO netconvert Version 1.1.0
<configuration xmlns:xsi="http://www.w3.org/2001/XMLSchema-instance" xsi:noNamespaceSchemaLocation="http://sumo.dlr.de/xsd/netconvertConfiguration.xsd">

    <input>
        <type-files value="/usr/share/sumo/data/typemap/osmNetconvert.typ.xml"/>
        <osm-files value="osm_bbox.osm.xml"/>
    </input>

    <output>
        <output-file value="osm.net.xml"/>
        <output.street-names value="true"/>
        <output.original-names value="true"/>
    </output>

    <projection>
        <proj.utm value="true"/>
    </projection>

    <processing>
        <geometry.remove value="true"/>
        <roundabouts.guess value="true"/>
    </processing>

    <tls_building>
        <tls.discard-simple value="true"/>
        <tls.join value="true"/>
        <tls.guess-signals value="true"/>
        <tls.default-type value="actuated"/>
    </tls_building>

    <ramp_guessing>
        <ramps.guess value="true"/>
    </ramp_guessing>

    <junctions>
        <junctions.join value="true"/>
        <junctions.corner-detail value="5"/>
    </junctions>

    <report>
        <verbose value="true"/>
    </report>

</configuration>
-->

<net version="1.1" junctionCornerDetail="5" limitTurnSpeed="5.50" xmlns:xsi="http://www.w3.org/2001/XMLSchema-instance" xsi:noNamespaceSchemaLocation="http://sumo.dlr.de/xsd/net_file.xsd">

    <location netOffset="-690326.03,-4966370.77" convBoundary="0.00,0.00,2847.91,2169.48" origBoundary="-0.596190,44.824779,-0.556369,44.844501" projParameter="+proj=utm +zone=30 +ellps=WGS84 +datum=WGS84 +units=m +no_defs"/>

    <type id="highway.bridleway" priority="1" numLanes="1" speed="2.78" allow="pedestrian" oneway="1" width="2.00"/>
    <type id="highway.bus_guideway" priority="1" numLanes="1" speed="27.78" allow="bus" oneway="1"/>
    <type id="highway.cycleway" priority="1" numLanes="1" speed="8.33" allow="bicycle" oneway="0" width="1.00"/>
    <type id="highway.footway" priority="1" numLanes="1" speed="2.78" allow="pedestrian" oneway="1" width="2.00"/>
    <type id="highway.ford" priority="1" numLanes="1" speed="2.78" allow="army" oneway="0"/>
    <type id="highway.living_street" priority="3" numLanes="1" speed="2.78" disallow="tram rail_urban rail rail_electric ship" oneway="0"/>
    <type id="highway.motorway" priority="13" numLanes="2" speed="44.44" allow="private emergency authority army vip passenger hov taxi bus coach delivery truck trailer motorcycle evehicle custom1 custom2" oneway="1"/>
    <type id="highway.motorway_link" priority="12" numLanes="1" speed="22.22" allow="private emergency authority army vip passenger hov taxi bus coach delivery truck trailer motorcycle evehicle custom1 custom2" oneway="1"/>
    <type id="highway.path" priority="1" numLanes="1" speed="2.78" allow="bicycle pedestrian" oneway="1" width="2.00"/>
    <type id="highway.pedestrian" priority="1" numLanes="1" speed="2.78" allow="pedestrian" oneway="1" width="2.00"/>
    <type id="highway.primary" priority="9" numLanes="2" speed="27.78" disallow="tram rail_urban rail rail_electric ship" oneway="0"/>
    <type id="highway.primary_link" priority="8" numLanes="1" speed="22.22" disallow="tram rail_urban rail rail_electric ship" oneway="0"/>
    <type id="highway.raceway" priority="14" numLanes="2" speed="83.33" allow="vip" oneway="0"/>
    <type id="highway.residential" priority="4" numLanes="1" speed="13.89" disallow="tram rail_urban rail rail_electric ship" oneway="0"/>
    <type id="highway.secondary" priority="7" numLanes="2" speed="27.78" disallow="tram rail_urban rail rail_electric ship" oneway="0"/>
    <type id="highway.secondary_link" priority="6" numLanes="1" speed="22.22" disallow="tram rail_urban rail rail_electric ship" oneway="0"/>
    <type id="highway.service" priority="2" numLanes="1" speed="5.56" allow="delivery bicycle pedestrian" oneway="0"/>
    <type id="highway.stairs" priority="1" numLanes="1" speed="1.39" allow="pedestrian" oneway="1" width="2.00"/>
    <type id="highway.step" priority="1" numLanes="1" speed="1.39" allow="pedestrian" oneway="1" width="2.00"/>
    <type id="highway.steps" priority="1" numLanes="1" speed="1.39" allow="pedestrian" oneway="1" width="2.00"/>
    <type id="highway.tertiary" priority="6" numLanes="1" speed="22.22" disallow="tram rail_urban rail rail_electric ship" oneway="0"/>
    <type id="highway.tertiary_link" priority="5" numLanes="1" speed="22.22" disallow="tram rail_urban rail rail_electric ship" oneway="0"/>
    <type id="highway.track" priority="1" numLanes="1" speed="5.56" disallow="tram rail_urban rail rail_electric ship" oneway="0"/>
    <type id="highway.trunk" priority="11" numLanes="2" speed="27.78" disallow="tram rail_urban rail rail_electric bicycle pedestrian ship" oneway="0"/>
    <type id="highway.trunk_link" priority="10" numLanes="1" speed="22.22" disallow="tram rail_urban rail rail_electric bicycle pedestrian ship" oneway="0"/>
    <type id="highway.unclassified" priority="5" numLanes="1" speed="13.89" disallow="tram rail_urban rail rail_electric ship" oneway="0"/>
    <type id="highway.unsurfaced" priority="1" numLanes="1" speed="8.33" disallow="tram rail_urban rail rail_electric ship" oneway="0"/>
    <type id="railway.light_rail" priority="15" numLanes="1" speed="27.78" allow="rail_urban" oneway="1"/>
    <type id="railway.preserved" priority="15" numLanes="1" speed="27.78" allow="rail" oneway="1"/>
    <type id="railway.rail" priority="15" numLanes="1" speed="83.33" allow="rail rail_electric" oneway="1"/>
    <type id="railway.subway" priority="15" numLanes="1" speed="27.78" allow="rail_urban" oneway="1"/>
    <type id="railway.tram" priority="15" numLanes="1" speed="13.89" allow="tram" oneway="1"/>

    <edge id=":1308812545_0" function="internal">
        <lane id=":1308812545_0_0" index="0" disallow="tram rail_urban rail rail_electric ship" speed="13.89" length="12.77" shape="1127.38,836.54 1114.95,839.49"/>
    </edge>
    <edge id=":1308812545_1" function="internal">
        <lane id=":1308812545_1_0" index="0" disallow="tram rail_urban rail rail_electric ship" speed="5.86" length="9.12" shape="1127.38,836.54 1124.73,836.75 1122.98,836.01 1122.11,834.31 1122.14,831.66"/>
    </edge>
    <edge id=":1308812545_2" function="internal">
        <lane id=":1308812545_2_0" index="0" disallow="tram rail_urban rail rail_electric ship" speed="5.78" length="9.36" shape="1120.14,844.27 1120.23,841.45 1119.40,839.71 1117.64,839.05 1114.95,839.49"/>
    </edge>
    <edge id=":1308812545_3" function="internal">
        <lane id=":1308812545_3_0" index="0" disallow="tram rail_urban rail rail_electric ship" speed="13.89" length="12.77" shape="1120.14,844.27 1122.14,831.66"/>
    </edge>
    <edge id=":1309139764_0" function="internal">
        <lane id=":1309139764_0_0" index="0" allow="delivery bicycle pedestrian" speed="5.07" length="5.03" shape="1069.37,905.56 1070.74,905.52 1071.77,905.05 1072.47,904.14 1072.83,902.80"/>
    </edge>
    <edge id=":1309139764_1" function="internal">
        <lane id=":1309139764_1_0" index="0" allow="delivery bicycle pedestrian" speed="5.56" length="6.22" shape="1069.37,905.56 1075.56,906.23"/>
    </edge>
    <edge id=":1309139765_0" function="internal">
        <lane id=":1309139765_0_0" index="0" allow="bus bicycle" speed="5.15" length="5.07" shape="1110.27,890.54 1111.68,890.47 1112.75,890.00 1113.47,889.12 1113.85,887.82"/>
    </edge>
    <edge id=":1309139765_1" function="internal">
        <lane id=":1309139765_1_0" index="0" allow="bus bicycle" speed="13.89" length="6.19" shape="1113.01,893.96 1113.85,887.82"/>
    </edge>
    <edge id=":1309139767_0" function="internal">
        <lane id=":1309139767_0_0" index="0" allow="delivery bicycle pedestrian" speed="5.04" length="5.00" shape="1090.48,914.97 1089.11,915.02 1088.09,915.50 1087.41,916.40 1087.08,917.73"/>
    </edge>
    <edge id=":1309139767_1" function="internal">
        <lane id=":1309139767_1_0" index="0" allow="delivery bicycle pedestrian" speed="5.56" length="6.20" shape="1087.72,911.56 1087.08,917.73"/>
    </edge>
    <edge id=":1309139768_0" function="internal">
        <lane id=":1309139768_0_0" index="0" allow="delivery bicycle pedestrian" speed="5.56" length="6.21" shape="1060.08,904.51 1066.26,905.20"/>
    </edge>
    <edge id=":1309139768_1" function="internal">
        <lane id=":1309139768_1_0" index="0" allow="delivery bicycle pedestrian" speed="5.03" length="5.02" shape="1062.84,907.94 1063.17,906.61 1063.85,905.70 1064.88,905.23 1066.26,905.20"/>
    </edge>
    <edge id=":1309139770_0" function="internal">
        <lane id=":1309139770_0_0" index="0" allow="delivery bicycle pedestrian" speed="5.56" length="6.48" shape="1072.19,883.72 1074.00,884.24 1075.14,884.97 1076.26,885.71 1078.07,886.28"/>
    </edge>
    <edge id=":1309139770_1" function="internal">
        <lane id=":1309139770_1_0" index="0" allow="delivery bicycle pedestrian" speed="3.65" length="4.67" shape="1072.19,883.72 1073.26,884.69 1073.55,885.54 1073.04,886.27 1071.74,886.89"/>
    </edge>
    <edge id=":1309139770_2" function="internal">
        <lane id=":1309139770_2_0" index="0" allow="delivery bicycle pedestrian" speed="5.05" length="4.95" shape="1074.40,890.34 1074.37,888.99 1073.92,887.97 1073.04,887.27 1071.74,886.89"/>
    </edge>
    <edge id=":1309139770_3" function="internal">
        <lane id=":1309139770_3_0" index="0" allow="delivery bicycle pedestrian" speed="5.45" length="6.23" shape="1074.40,890.34 1074.84,888.36 1075.60,887.03 1076.68,886.33 1078.07,886.28"/>
    </edge>
    <edge id=":1309139776_0" function="internal">
        <lane id=":1309139776_0_0" index="0" allow="delivery bicycle pedestrian" speed="5.56" length="6.21" shape="1064.81,919.18 1058.63,918.54"/>
    </edge>
    <edge id=":1309139776_1" function="internal">
        <lane id=":1309139776_1_0" index="0" allow="delivery bicycle pedestrian" speed="5.04" length="5.01" shape="1064.81,919.18 1063.48,918.85 1062.57,918.17 1062.09,917.15 1062.03,915.78"/>
    </edge>
    <edge id=":1309139777_0" function="internal">
        <lane id=":1309139777_0_0" index="0" allow="delivery bicycle pedestrian" speed="3.65" length="4.67" shape="1045.74,883.16 1044.67,882.20 1044.39,881.35 1044.90,880.61 1046.20,879.99"/>
    </edge>
    <edge id=":1309139778_0" function="internal">
        <lane id=":1309139778_0_0" index="0" allow="delivery bicycle pedestrian" speed="4.98" length="5.07" shape="1109.46,920.07 1109.48,918.67 1109.04,917.62 1108.15,916.93 1106.79,916.59"/>
    </edge>
    <edge id=":1309139778_1" function="internal">
        <lane id=":1309139778_1_0" index="0" allow="bus bicycle" speed="13.89" length="6.25" shape="1109.46,920.07 1110.37,913.89"/>
    </edge>
    <edge id=":1309160032_0" function="internal">
        <lane id=":1309160032_0_0" index="0" disallow="tram rail_urban rail rail_electric ship" speed="8.33" length="5.03" shape="1311.53,778.63 1306.73,780.14"/>
    </edge>
    <edge id=":1309176523_0" function="internal">
        <lane id=":1309176523_0_0" index="0" disallow="tram rail_urban rail rail_electric ship" speed="2.78" length="4.50" shape="1439.65,847.32 1435.17,847.01"/>
    </edge>
    <edge id=":1310602869_0" function="internal">
        <lane id=":1310602869_0_0" index="0" disallow="tram rail_urban rail rail_electric ship" speed="6.11" length="7.76" shape="1709.32,668.76 1709.70,667.39 1710.86,666.40 1712.82,665.77 1715.56,665.51"/>
    </edge>
    <edge id=":1310602869_1" function="internal">
        <lane id=":1310602869_1_0" index="0" allow="delivery bicycle pedestrian" speed="3.65" length="4.67" shape="1709.32,668.76 1710.11,667.55 1710.90,667.14 1711.71,667.53 1712.52,668.71"/>
    </edge>
    <edge id=":1310602869_2" function="internal">
        <lane id=":1310602869_2_0" index="0" disallow="tram rail_urban rail rail_electric ship" speed="8.33" length="9.39" shape="1706.17,665.70 1715.56,665.51"/>
    </edge>
    <edge id=":1310602869_3" function="internal">
        <lane id=":1310602869_3_0" index="0" allow="delivery bicycle pedestrian" speed="6.08" length="7.77" shape="1706.17,665.70 1708.93,665.85 1710.91,666.40 1712.11,667.36 1712.52,668.71"/>
    </edge>
    <edge id=":1310602871_0" function="internal">
        <lane id=":1310602871_0_0" index="0" disallow="tram rail_urban rail rail_electric ship" speed="8.33" length="5.01" shape="1738.50,664.95 1743.51,664.85"/>
    </edge>
    <edge id=":1310602881_0" function="internal">
        <lane id=":1310602881_0_0" index="0" disallow="tram rail_urban rail rail_electric ship" speed="5.03" length="5.01" shape="1704.21,750.53 1704.04,751.89 1704.34,752.98 1705.13,753.79 1706.39,754.33"/>
    </edge>
    <edge id=":1310602881_1" function="internal">
        <lane id=":1310602881_1_0" index="0" allow="delivery bicycle pedestrian" speed="3.65" length="4.67" shape="1704.21,750.53 1703.12,751.47 1702.25,751.64 1701.58,751.05 1701.13,749.68"/>
    </edge>
    <edge id=":1310602881_2" function="internal">
        <lane id=":1310602881_2_0" index="0" allow="delivery bicycle pedestrian" speed="5.12" length="5.07" shape="1697.32,752.02 1698.67,752.14 1699.75,751.79 1700.57,750.97 1701.13,749.68"/>
    </edge>
    <edge id=":1310602881_3" function="internal">
        <lane id=":1310602881_3_0" index="0" disallow="tram rail_urban rail rail_electric ship" speed="13.89" length="9.37" shape="1697.32,752.02 1706.39,754.33"/>
    </edge>
    <edge id=":1310602884_0" function="internal">
        <lane id=":1310602884_0_0" index="0" allow="delivery bicycle pedestrian" speed="3.65" length="4.67" shape="1740.52,724.64 1741.29,723.42 1742.08,723.00 1742.89,723.38 1743.72,724.56"/>
    </edge>
    <edge id=":1310717218_0" function="internal">
        <lane id=":1310717218_0_0" index="0" allow="delivery bicycle pedestrian" speed="3.65" length="4.67" shape="1974.81,1049.77 1973.71,1048.84 1973.40,1048.00 1973.89,1047.25 1975.17,1046.59"/>
    </edge>
    <edge id=":1312133081_0" function="internal">
        <lane id=":1312133081_0_0" index="0" disallow="tram rail_urban rail rail_electric ship" speed="5.56" length="9.04" shape="2118.59,975.56 2120.37,977.33 2122.25,978.03 2124.22,977.67 2126.29,976.25"/>
    </edge>
    <edge id=":1312133081_1" function="internal">
        <lane id=":1312133081_1_0" index="0" disallow="tram rail_urban rail rail_electric ship" speed="5.56" length="10.30" shape="2118.59,975.56 2120.40,978.00 2121.47,979.85 2122.00,981.89 2122.22,984.90"/>
    </edge>
    <edge id=":1320313656_0" function="internal">
        <lane id=":1320313656_0_0" index="0" disallow="tram rail_urban rail rail_electric ship" speed="5.56" length="5.04" shape="2072.70,1168.02 2069.64,1164.01"/>
    </edge>
    <edge id=":1320642114_0" function="internal">
        <lane id=":1320642114_0_0" index="0" disallow="tram rail_urban rail rail_electric ship" speed="2.78" length="5.10" shape="1765.68,1524.38 1767.39,1519.58"/>
    </edge>
    <edge id=":1320642123_0" function="internal">
        <lane id=":1320642123_0_0" index="0" disallow="tram rail_urban rail rail_electric ship" speed="2.78" length="3.79" shape="1766.19,1510.12 1762.65,1508.74"/>
    </edge>
    <edge id=":1338959189_0" function="internal">
        <lane id=":1338959189_0_0" index="0" allow="bicycle" speed="8.33" length="4.53" width="1.00" shape="2096.99,1366.86 2095.76,1367.40 2094.95,1367.84 2094.22,1368.40 2093.21,1369.28"/>
    </edge>
    <edge id=":1338959189_1" function="internal">
        <lane id=":1338959189_1_0" index="0" allow="bicycle" speed="2.04" length="0.73" width="1.00" shape="2096.99,1366.86 2096.55,1366.77 2096.34,1366.59"/>
    </edge>
    <edge id=":1338959189_4" function="internal">
        <lane id=":1338959189_4_0" index="0" allow="bicycle" speed="2.04" length="0.73" width="1.00" shape="2096.34,1366.59 2096.35,1366.31 2096.60,1365.94"/>
    </edge>
    <edge id=":1338959189_2" function="internal">
        <lane id=":1338959189_2_0" index="0" allow="bicycle" speed="8.33" length="4.85" width="1.00" shape="2092.54,1368.53 2093.63,1367.58 2094.42,1366.99 2095.29,1366.51 2096.60,1365.94"/>
    </edge>
    <edge id=":1338959189_3" function="internal">
        <lane id=":1338959189_3_0" index="0" allow="bicycle" speed="2.04" length="0.73" width="1.00" shape="2092.54,1368.53 2092.99,1368.47 2093.25,1368.57"/>
    </edge>
    <edge id=":1338959189_5" function="internal">
        <lane id=":1338959189_5_0" index="0" allow="bicycle" speed="2.04" length="0.73" width="1.00" shape="2093.25,1368.57 2093.32,1368.84 2093.21,1369.28"/>
    </edge>
    <edge id=":1376224729_0" function="internal">
        <lane id=":1376224729_0_0" index="0" allow="bus bicycle" speed="13.89" length="11.22" shape="945.59,967.39 948.55,956.57"/>
    </edge>
    <edge id=":1376224729_1" function="internal">
        <lane id=":1376224729_1_0" index="0" disallow="tram rail_urban rail rail_electric ship" speed="7.30" length="4.09" shape="948.67,968.25 948.80,965.72 948.08,964.35"/>
    </edge>
    <edge id=":1376224729_2" function="internal">
        <lane id=":1376224729_2_0" index="0" disallow="tram rail_urban rail rail_electric ship" speed="13.89" length="11.25" shape="948.67,968.25 951.64,957.40"/>
    </edge>
    <edge id=":1376224729_3" function="internal">
        <lane id=":1376224729_3_0" index="0" disallow="tram rail_urban rail rail_electric ship" speed="7.30" length="7.67" shape="948.08,964.35 947.68,963.60 945.30,961.87 941.66,960.54"/>
    </edge>
    <edge id=":1403724480_0" function="internal">
        <lane id=":1403724480_0_0" index="0" disallow="tram rail_urban rail rail_electric ship" speed="6.46" length="9.03" shape="2269.88,789.02 2268.02,787.38 2266.09,786.74 2264.09,787.11 2262.02,788.48"/>
    </edge>
    <edge id=":1403724480_1" function="internal">
        <lane id=":1403724480_1_0" index="0" disallow="tram rail_urban rail rail_electric ship" speed="8.33" length="11.23" shape="2270.47,781.09 2262.02,788.48"/>
    </edge>
    <edge id=":1404632232_0" function="internal">
        <lane id=":1404632232_0_0" index="0" allow="delivery bicycle pedestrian" speed="3.65" length="4.67" shape="1987.34,504.82 1988.63,505.45 1989.13,506.19 1988.84,507.04 1987.76,507.99"/>
    </edge>
    <edge id=":1406856226_0" function="internal">
        <lane id=":1406856226_0_0" index="0" disallow="tram rail_urban rail rail_electric ship" speed="13.89" length="9.40" shape="2112.55,756.28 2103.41,754.12"/>
    </edge>
    <edge id=":1406856226_1" function="internal">
        <lane id=":1406856226_1_0" index="0" allow="delivery bicycle pedestrian" speed="6.12" length="7.77" shape="2112.55,756.28 2109.92,755.45 2108.14,754.43 2107.21,753.21 2107.12,751.79"/>
    </edge>
    <edge id=":1406856226_2" function="internal">
        <lane id=":1406856226_2_0" index="0" disallow="tram rail_urban rail rail_electric ship" speed="6.07" length="7.79" shape="2110.24,752.48 2109.56,753.74 2108.19,754.43 2106.14,754.56 2103.41,754.12"/>
    </edge>
    <edge id=":1406856226_3" function="internal">
        <lane id=":1406856226_3_0" index="0" allow="delivery bicycle pedestrian" speed="3.65" length="4.67" shape="2110.24,752.48 2109.20,753.48 2108.34,753.69 2107.64,753.13 2107.12,751.79"/>
    </edge>
    <edge id=":1406856228_0" function="internal">
        <lane id=":1406856228_0_0" index="0" allow="delivery bicycle pedestrian" speed="3.65" length="4.67" shape="2203.01,648.71 2204.44,648.90 2205.15,649.44 2205.14,650.34 2204.42,651.59"/>
    </edge>
    <edge id=":1406858240_0" function="internal">
        <lane id=":1406858240_0_0" index="0" allow="delivery bicycle pedestrian" speed="3.65" length="4.67" shape="2189.01,707.26 2188.81,708.68 2188.26,709.39 2187.37,709.38 2186.13,708.64"/>
    </edge>
    <edge id=":1406858241_0" function="internal">
        <lane id=":1406858241_0_0" index="0" allow="delivery bicycle pedestrian" speed="5.15" length="4.99" shape="2165.30,674.10 2164.57,672.93 2163.65,672.24 2162.54,672.04 2161.23,672.31"/>
    </edge>
    <edge id=":1406858241_1" function="internal">
        <lane id=":1406858241_1_0" index="0" allow="delivery bicycle pedestrian" speed="5.56" length="9.97" shape="2165.30,674.10 2164.55,671.49 2164.80,669.23 2166.05,667.34 2168.30,665.81"/>
    </edge>
    <edge id=":1406858241_2" function="internal">
        <lane id=":1406858241_2_0" index="0" allow="delivery bicycle pedestrian" speed="3.65" length="4.67" shape="2165.30,674.10 2165.54,672.68 2166.11,671.99 2167.00,672.03 2168.22,672.80"/>
    </edge>
    <edge id=":1406858241_3" function="internal">
        <lane id=":1406858241_3_0" index="0" allow="delivery bicycle pedestrian" speed="5.08" length="4.95" shape="2169.71,668.68 2168.59,669.44 2167.97,670.38 2167.85,671.50 2168.22,672.80"/>
    </edge>
    <edge id=":1406858241_4" function="internal">
        <lane id=":1406858241_4_0" index="0" allow="delivery bicycle pedestrian" speed="5.56" length="9.23" shape="2169.71,668.68 2167.25,669.88 2165.54,670.66 2163.80,671.36 2161.23,672.31"/>
    </edge>
    <edge id=":1406858241_5" function="internal">
        <lane id=":1406858241_5_0" index="0" allow="delivery bicycle pedestrian" speed="3.65" length="4.67" shape="2169.71,668.68 2168.28,668.49 2167.57,667.95 2167.57,667.06 2168.30,665.81"/>
    </edge>
    <edge id=":1406858241_6" function="internal">
        <lane id=":1406858241_6_0" index="0" allow="delivery bicycle pedestrian" speed="5.56" length="8.89" shape="2160.13,669.31 2162.60,668.39 2164.28,667.72 2165.92,666.97 2168.30,665.81"/>
    </edge>
    <edge id=":1406858241_7" function="internal">
        <lane id=":1406858241_7_0" index="0" allow="delivery bicycle pedestrian" speed="5.56" length="9.90" shape="2160.13,669.31 2162.74,668.75 2164.96,669.15 2166.79,670.50 2168.22,672.80"/>
    </edge>
    <edge id=":1406858241_8" function="internal">
        <lane id=":1406858241_8_0" index="0" allow="delivery bicycle pedestrian" speed="3.65" length="4.67" shape="2160.13,669.31 2161.53,669.65 2162.18,670.26 2162.08,671.15 2161.23,672.31"/>
    </edge>
    <edge id=":1406954558_0" function="internal">
        <lane id=":1406954558_0_0" index="0" disallow="tram rail_urban rail rail_electric ship" speed="5.04" length="5.00" shape="2206.88,599.04 2206.33,597.78 2205.51,597.01 2204.42,596.71 2203.06,596.89"/>
    </edge>
    <edge id=":1406954558_1" function="internal">
        <lane id=":1406954558_1_0" index="0" allow="delivery bicycle pedestrian" speed="3.65" length="4.67" shape="2206.88,599.04 2207.33,597.66 2207.99,597.06 2208.87,597.23 2209.97,598.17"/>
    </edge>
    <edge id=":1406954558_2" function="internal">
        <lane id=":1406954558_2_0" index="0" allow="delivery bicycle pedestrian" speed="5.09" length="5.03" shape="2212.05,594.26 2210.82,594.84 2210.06,595.68 2209.78,596.79 2209.97,598.17"/>
    </edge>
    <edge id=":1406954558_3" function="internal">
        <lane id=":1406954558_3_0" index="0" disallow="tram rail_urban rail rail_electric ship" speed="13.89" length="9.36" shape="2212.05,594.26 2203.06,596.89"/>
    </edge>
    <edge id=":1406954559_0" function="internal">
        <lane id=":1406954559_0_0" index="0" allow="delivery bicycle pedestrian" speed="3.65" length="4.67" shape="2223.87,630.83 2223.64,632.25 2223.08,632.94 2222.18,632.91 2220.96,632.15"/>
    </edge>
    <edge id=":1407329128_0" function="internal">
        <lane id=":1407329128_0_0" index="0" allow="delivery bicycle pedestrian" speed="3.65" length="4.67" shape="2160.39,748.61 2161.47,747.66 2162.35,747.47 2163.02,748.06 2163.49,749.43"/>
    </edge>
    <edge id=":1608629367_0" function="internal">
        <lane id=":1608629367_0_0" index="0" allow="delivery bicycle pedestrian" speed="3.65" length="4.67" shape="979.74,1423.15 978.69,1422.17 978.42,1421.31 978.95,1420.59 980.26,1419.99"/>
    </edge>
    <edge id=":1752257303_0" function="internal">
        <lane id=":1752257303_0_0" index="0" disallow="tram rail_urban rail rail_electric ship" speed="13.89" length="9.43" shape="1917.49,477.15 1916.73,479.84 1916.21,481.69 1915.62,483.51 1914.64,486.13"/>
    </edge>
    <edge id=":1752257303_1" function="internal">
        <lane id=":1752257303_1_0" index="0" disallow="tram rail_urban rail rail_electric ship" speed="8.22" length="8.81" shape="1914.42,476.26 1913.47,478.86 1912.29,480.85 1910.90,482.22 1909.30,482.98"/>
    </edge>
    <edge id=":1752258085_0" function="internal">
        <lane id=":1752258085_0_0" index="0" disallow="tram rail_urban rail rail_electric ship" speed="22.22" length="7.94" shape="1903.66,508.12 1901.70,500.42"/>
    </edge>
    <edge id=":1752258085_1" function="internal">
        <lane id=":1752258085_1_0" index="0" disallow="tram rail_urban rail rail_electric ship" speed="3.65" length="2.34" shape="1903.66,508.12 1904.14,506.76 1904.82,506.18"/>
    </edge>
    <edge id=":1752258085_6" function="internal">
        <lane id=":1752258085_6_0" index="0" disallow="tram rail_urban rail rail_electric ship" speed="3.65" length="2.34" shape="1904.82,506.18 1905.69,506.37 1906.76,507.34"/>
    </edge>
    <edge id=":1752258085_2" function="internal">
        <lane id=":1752258085_2_0" index="0" disallow="tram rail_urban rail rail_electric ship" speed="10.02" length="7.90" shape="1908.82,500.04 1907.65,502.09 1906.81,503.58 1906.45,505.12 1906.76,507.34"/>
    </edge>
    <edge id=":1752258085_3" function="internal">
        <lane id=":1752258085_3_0" index="0" disallow="tram rail_urban rail rail_electric ship" speed="5.94" length="12.13" shape="1908.82,500.04 1906.58,503.63 1904.64,504.89 1903.01,503.82 1901.70,500.42"/>
    </edge>
    <edge id=":1752258085_4" function="internal">
        <lane id=":1752258085_4_0" index="0" disallow="tram rail_urban rail rail_electric ship" speed="22.22" length="7.96" shape="1904.80,499.63 1906.76,507.34"/>
    </edge>
    <edge id=":1752258085_5" function="internal">
        <lane id=":1752258085_5_0" index="0" disallow="tram rail_urban rail rail_electric ship" speed="3.65" length="2.34" shape="1904.80,499.63 1904.32,500.99 1903.64,501.58"/>
    </edge>
    <edge id=":1752258085_7" function="internal">
        <lane id=":1752258085_7_0" index="0" disallow="tram rail_urban rail rail_electric ship" speed="3.65" length="2.34" shape="1903.64,501.58 1902.77,501.39 1901.70,500.42"/>
    </edge>
    <edge id=":1782797288_0" function="internal">
        <lane id=":1782797288_0_0" index="0" disallow="tram rail_urban rail rail_electric ship" speed="13.89" length="6.80" shape="2076.47,537.64 2083.03,535.84"/>
    </edge>
    <edge id=":1782797288_1" function="internal">
        <lane id=":1782797288_1_0" index="0" disallow="tram rail_urban rail rail_electric ship" speed="7.14" length="6.27" shape="2079.43,540.69 2080.14,538.80 2080.98,537.37 2081.94,536.38 2083.03,535.84"/>
    </edge>
    <edge id=":1828350682_0" function="internal">
        <lane id=":1828350682_0_0" index="0" disallow="tram rail_urban rail rail_electric ship" speed="6.03" length="8.91" shape="2282.65,485.37 2281.60,482.99 2280.13,481.68 2278.25,481.45 2275.96,482.29"/>
    </edge>
    <edge id=":1828350682_1" function="internal">
        <lane id=":1828350682_1_0" index="0" disallow="tram rail_urban rail rail_electric ship" speed="13.89" length="14.38" shape="2282.65,485.37 2278.76,471.52"/>
    </edge>
    <edge id=":1828350682_2" function="internal">
        <lane id=":1828350682_2_0" index="0" disallow="tram rail_urban rail rail_electric ship" speed="3.65" length="2.34" shape="2282.65,485.37 2283.09,484.00 2283.75,483.39"/>
    </edge>
    <edge id=":1828350682_9" function="internal">
        <lane id=":1828350682_9_0" index="0" disallow="tram rail_urban rail rail_electric ship" speed="3.65" length="2.34" shape="2283.75,483.39 2284.62,483.56 2285.73,484.49"/>
    </edge>
    <edge id=":1828350682_3" function="internal">
        <lane id=":1828350682_3_0" index="0" disallow="tram rail_urban rail rail_electric ship" speed="13.89" length="14.34" shape="2281.85,470.68 2285.73,484.49"/>
    </edge>
    <edge id=":1828350682_4" function="internal">
        <lane id=":1828350682_4_0" index="0" disallow="tram rail_urban rail rail_electric ship" speed="8.79" length="5.45" shape="2281.85,470.68 2282.22,474.13 2281.69,476.04"/>
    </edge>
    <edge id=":1828350682_5" function="internal">
        <lane id=":1828350682_5_0" index="0" disallow="tram rail_urban rail rail_electric ship" speed="3.65" length="2.34" shape="2281.85,470.68 2281.39,472.05 2280.73,472.65"/>
    </edge>
    <edge id=":1828350682_10" function="internal">
        <lane id=":1828350682_10_0" index="0" disallow="tram rail_urban rail rail_electric ship" speed="8.79" length="8.72" shape="2281.69,476.04 2281.37,477.21 2279.28,479.93 2275.96,482.29"/>
    </edge>
    <edge id=":1828350682_11" function="internal">
        <lane id=":1828350682_11_0" index="0" disallow="tram rail_urban rail rail_electric ship" speed="3.65" length="2.34" shape="2280.73,472.65 2279.85,472.47 2278.76,471.52"/>
    </edge>
    <edge id=":1828350682_6" function="internal">
        <lane id=":1828350682_6_0" index="0" disallow="tram rail_urban rail rail_electric ship" speed="7.24" length="9.33" shape="2274.95,479.20 2277.11,477.65 2278.47,475.86 2279.02,473.81 2278.76,471.52"/>
    </edge>
    <edge id=":1828350682_7" function="internal">
        <lane id=":1828350682_7_0" index="0" disallow="tram rail_urban rail rail_electric ship" speed="7.51" length="14.52" shape="2274.95,479.20 2278.61,477.87 2281.63,478.31 2284.00,480.52 2285.73,484.49"/>
    </edge>
    <edge id=":1828350682_8" function="internal">
        <lane id=":1828350682_8_0" index="0" disallow="tram rail_urban rail rail_electric ship" speed="3.67" length="4.76" shape="2274.95,479.20 2276.36,479.59 2277.00,480.24 2276.87,481.14 2275.96,482.29"/>
    </edge>
    <edge id=":1828350685_0" function="internal">