<?xml version="1.0" encoding="UTF-8"?>

<!-- generated on Fri Apr  5 10:14:20 2019 by Eclipse SUMO duarouter Version 1.1.0
<configuration xmlns:xsi="http://www.w3.org/2001/XMLSchema-instance" xsi:noNamespaceSchemaLocation="http://sumo.dlr.de/xsd/duarouterConfiguration.xsd">

    <input>
        <net-file value="/home/invite/Sumo/2019-04-05-10-13-45/osm.net.xml"/>
        <route-files value="/home/invite/Sumo/2019-04-05-10-13-45/osm.passenger.trips.xml"/>
    </input>

    <output>
        <output-file value="/home/invite/Sumo/2019-04-05-10-13-45/osm.passenger.rou.xml"/>
        <alternatives-output value="/home/invite/Sumo/2019-04-05-10-13-45/osm.passenger.rou.alt.xml"/>
    </output>

    <time>
        <begin value="0"/>
        <end value="3600.0"/>
    </time>

    <report>
        <no-warnings value="true"/>
        <ignore-errors value="true"/>
        <no-step-log value="true"/>
    </report>

</configuration>
-->

<routes xmlns:xsi="http://www.w3.org/2001/XMLSchema-instance" xsi:noNamespaceSchemaLocation="http://sumo.dlr.de/xsd/routes_file.xsd">
    <vType id="veh_passenger" vClass="passenger"/>
    <vehicle id="veh0" type="veh_passenger" depart="0.00" departLane="best" departSpeed="max">
        <route edges="26585732#0 26585732#3 26585732#4 5117193#0 5117193#1 119086616#7 189585366 26586731#1 26586731#3 625566101 625562681#0 182069785#0 182069785#1 182069785#2 189536164#0 189536164#1 291166426#1 291166426#4 182069787#1 625562664#1 625562664#2 621442432 311929814#1 -182069806#4 -182069806#3 -182069806#2 -182069806#1 -182069806#0"/>
    </vehicle>
    <vehicle id="veh1" type="veh_passenger" depart="6.15" departLane="best" departSpeed="max">
        <route edges="183321025#0 183321025#1 183321025#2 183321025#3 180582575#2 180582577#2"/>
    </vehicle>
    <vehicle id="veh2" type="veh_passenger" depart="12.30" departLane="best">
        <route edges="61129731#1 23170021#6 23170021#7 23170021#8 163984489#0 163984489#1 182069803#3 166856386#1 185464347#0 185464347#2 126386653 23160146#0 23160146#1 23160146#2 23571274#0 23571274#1 448118528#1 61407901#0 182069787#1 625562664#1 625562664#2 621442432 311929814#1 -182069806#4 -182069806#3 -182069806#2 25769936 -25769936"/>
    </vehicle>
    <vehicle id="veh3" type="veh_passenger" depart="18.45" departLane="best">
        <route edges="23160146#1 23160146#2 23571274#0 23571274#1 448118528#1 61407901#0 182069787#1 182069786#1 182069786#5 182069786#7 182069786#8 291166433#0 23361564#1 23361564#6 23361564#8 23361564#9 23361564#10 23361564#11 23361564#12 80036959#1 182187278#0 -182187278#0"/>
    </vehicle>
    <vehicle id="veh4" type="veh_passenger" depart="24.60" departLane="best">
        <route edges="180582575#0 -180582575#1 178163878#1 -115994002#1 180362516#0 605662851#0 189588564#2 189588564#3 189588564#4 189588562#2 458296950 626726210#0 180534498#1 194262658 626726212#2 626726212#3 182031776 23246838#0 23246838#1"/>
    </vehicle>
    <vehicle id="veh5" type="veh_passenger" depart="30.74" departLane="best">
        <route edges="-182069806#3 182069806#3 182069806#4 182069800#0 182069800#1 621442431#1 603759585#0 182069786#5 182069786#7 182069786#8 291166433#0 189536169#0 194261694#0 194261694#2 194261692 194261693#0 194261693#1 -625506881#0 -625506882#3 -625506882#0 189588562#2 458296950 626726210#0 180534498#1"/>
    </vehicle>
    <vehicle id="veh6" type="veh_passenger" depart="36.89" departLane="best">
        <route edges="26585791#1 26585791#2 26585791#3 26585791#5 30064935#2 24515739#2 5117190#0 119086616#0 119086616#7 189585366 26586731#1 26586731#3 625566101 625562681#0 182069785#0 182069785#1 182069785#2 189536164#0 189536164#1 291166426#1 291166426#4 182069787#1 182069786#1 182069786#5 182069786#7 182069786#8 291166433#0 189536169#0 194261694#0 194261694#2 194261692 194261693#0 194261693#1 -625506881#0 -625506882#3 -625506882#0 283746975#1 180542447#0 180542447#1 180542447#3 180542447#5 180542447#6 -189678856#4 23458726#0 23458726#1 23458714#2"/>
    </vehicle>
    <vehicle id="veh7" type="veh_passenger" depart="43.04" departLane="best">
        <route edges="180582575#2 -180582575#2 -180582575#1 23215342#0 187638464#0 187638464#2 636388334#0 636388334#1 636388334#2 625525185#1 625525185#2 625525186#0 625525186#1 625525186#3 625562662#1 625562662#5 625562662#9 625562662#12 625562662#16 625562662#17 625562662#18 625562662#19 625562662#21 625562679#1 625562679#2 625562679#3 291166430#0 291166430#3 291166430#4 189585367#0 624263836#2 5117191#2 183474717 24515739#2 183474716 23160157 24521357#0"/>
    </vehicle>
    <vehicle id="veh8" type="veh_passenger" depart="49.19" departLane="best" departSpeed="max">
        <route edges="460751557#0 460751557#2 23164661#0 183321025#1 183321025#2 183321025#3 180582575#2 180582577#2 180582572#0 -180582572#1"/>
    </vehicle>
    <vehicle id="veh9" type="veh_passenger" depart="55.34" departLane="best">
        <route edges="458296950 626726210#0 287478069 283591101#0 283591101#1 180368389#0 371964284#1 625506882#3 625506881#0 -194261693#1 -194261693#0 -194261692 -194261694#3 -194261694#1 -189536169#2 625525185#1 625525185#2 625525186#0 625525186#1 625525186#3 625562662#1 625562662#5 625562662#9 625562662#12 625562678#1 625562678#2 26586939#1"/>
    </vehicle>
    <vehicle id="veh10" type="veh_passenger" depart="61.49" departLane="best">
        <route edges="189678856#0 189678856#3 23157811#1 115994002#0 178163877#1 180582575#0 180582575#2 180582577#2 180582572#0 182187278#0 163984487#0 23300120 23170021#2 23170021#3 23170021#4 23170021#5 23170021#6 23170021#7 23170021#8 163984489#0 163984489#1 182069803#3 166856386#1 185464347#0 -85144005 23458659#0 23458659#1 26647234 166858044 116388375#3 116388375#4 116388375#5 116388375#6 116388375#7 116388375#8"/>
    </vehicle>
    <vehicle id="veh11" type="veh_passenger" depart="67.64" departLane="best" departSpeed="max">
        <route edges="522095571 625574151#1 625574151#2 23361564#10 23361564#11 23361564#12 80036959#1 -180582572#1 187643366#1 -180582575#2 -180582575#1 178163878#1 -115994002#1 180362516#0 605662851#0 189588564#2 189588564#3 189588564#4 189588562#2 458296950 626726210#0 287478069 23164510#0 626732218#1 626732218#2 245320925#4"/>
    </vehicle>
    <vehicle id="veh12" type="veh_passenger" depart="73.79" departLane="best" departSpeed="max">
        <route edges="460751557#0 460751557#2 23164661#0 183321025#1 183321025#2 183321025#3 -180582575#1 23215342#0 187638464#0 23312316 115994656#0 115994656#1 26646991#0 26646991#1"/>
    </vehicle>
    <vehicle id="veh13" type="veh_passenger" depart="79.94" departLane="best">
        <route edges="23510383#0 23510383#1 23162842#0 23162842#1 23162842#3 182069806#0 182069806#1 182069806#2 182069806#3 182069806#4 182069800#0 182069800#1 621442431#1 603759585#0 182069786#5 182069786#7 182069786#8 291166433#0 189536169#0 194261694#0 194261694#2 194261692 194261693#0 194261693#1 -625506881#0 -625506882#3 -625506882#0 189588562#2 458296950 626726210#0 180534498#1 194262658 626726212#2 626726212#3"/>
    </vehicle>
    <vehicle id="veh14" type="veh_passenger" depart="86.08" departLane="best" departSpeed="max">
        <route edges="23126423 625986824#2 -182031776 605910148#0 605910148#1 605910148#2 180557128#1 221615627#2 626726211#0 626726211#1 287478069 283591101#0 283591101#1 180368389#0 371964284#1 625506882#3 625506881#0 -194261693#1 -194261693#0 -194261692 -194261694#3 -194261694#1 -189536169#2 625525185#1 625525185#2 625525186#0 625525186#1 625525186#3 625562662#1 625562664#1 625562664#2 621442432 311929814#1 -182069806#4 -182069806#3 -182069806#2 -182069806#1 -182069806#0 -23162842#3 -23162842#1 -23162842#0 23510383#2"/>
    </vehicle>
    <vehicle id="veh15" type="veh_passenger" depart="92.23" departLane="best">
        <route edges="503244726#0 503244726#1 194299561#0 23164667#1 187643366#1 -180582575#2 -180582575#1 23215342#0 187638464#0 187638464#2 636388334#0 636388334#1 636388334#2 625525185#1 625525185#2 625525186#0 625525186#1 625525186#3 625562662#1 625562662#5 625562662#9 625562662#12 625562662#16 625562662#17 625562662#18 625562662#19 625562662#21 625562679#1 625562679#2 625562679#3 291166430#0 25769924#0"/>
    </vehicle>
    <vehicle id="veh16" type="veh_passenger" depart="98.38" departLane="best">
        <route edges="604385362#1 -604385362#1 -604385362#0 126386654#1 182069803#3 166856386#1 185464347#0 -85144005 23458659#0 23458659#1 26647234 240861039#3 240861379#0 240861379#1"/>
    </vehicle>
    <vehicle id="veh17" type="veh_passenger" depart="104.53" departLane="best">
        <route edges="26616546#2 26616546#3 287478069 283591101#0 283591101#1 180368389#0 371964284#1 625506882#3 625506881#0 -194261693#1 -194261693#0 -194261692 -194261694#3 -194261694#1"/>
    </vehicle>
    <vehicle id="veh18" type="veh_passenger" depart="110.68" departLane="best">
        <route edges="-26586776 23170005 23160146#1 23160146#2 23571274#0 23571274#1 448118528#1 61407901#0 182069787#1 182069786#1 182069786#5 182069786#7 182069786#8 291166433#0 189536169#0 194261694#0 194261694#2 194261692 194261693#0 194261693#1 -625506881#0 -625506882#3 -625506882#0 283746975#1 180542447#0 180542447#1 180542447#3 180542447#5 180542447#6 23157811#1 115994002#0 23157812#0 23170764#0 23170764#2 180626333#0"/>
    </vehicle>
    <vehicle id="veh19" type="veh_passenger" depart="116.83" departLane="best" departSpeed="max">
        <route edges="-520887862#3 -520887862#1 -180626333#7 -180626333#5 -180626333#3 -180626333#2 -180626333#1 -180626333#0 180626330 503244729#0 503244729#1 503244729#2 23164684#0 48018456#0 48018456#1 183321025#3 180582575#2 180582577#2 180582572#0 182187278#0 163984487#0 23300120 503244725#0 503244725#1 116016363#0 111205409#1 111205409#2 111205409#3 23162617#0 23170003#0 23170003#1 23170003#2 23170003#4 240862333 182069804#0"/>
    </vehicle>
    <vehicle id="veh20" type="veh_passenger" depart="122.98" departLane="best" departSpeed="max">
        <route edges="26585732#0 26585732#3 26585732#4 5117193#0 5117193#1 119086616#7 189585366 26586731#1 26586731#3 625566101 625562681#0 182069785#0 182069785#1 182069785#2 189536164#0 189536164#1 291166426#1 291166426#4 182069787#1 182069786#1 182069786#5 182069786#7 182069786#8 291166433#0 23361564#1 23361564#6 23361564#8 23361564#9 23361564#10 23361564#11 23361564#12 80036959#1 194300927#1"/>
    </vehicle>
    <vehicle id="veh21" type="veh_passenger" depart="129.13" departLane="best">
        <route edges="194472557#0 194472557#1 174197384 194471713#0 194471713#1 23139673#0 23139673#1 -25769936 182069806#2 182069806#3 182069806#4 182069800#0 182069800#1 621442431#1 603759585#0 182069786#5 182069786#7 182069786#8 291166433#0 189536169#0 194261694#0 194261694#2 194261692 194261693#0 194261693#1 -625506881#0 -625506882#3 -625506882#0 189588562#2 458296950 626726210#0 180557126#1"/>
    </vehicle>
    <vehicle id="veh22" type="veh_passenger" depart="135.28" departLane="best">
        <route edges="182069806#4 182069800#0 182069800#1 621442431#1 603759585#0 625562662#1 625562662#5 625562662#9 625562662#12 625562662#16 625562662#17 625562662#18 625562662#19"/>
    </vehicle>
    <vehicle id="veh23" type="veh_passenger" depart="141.42" departLane="best">
        <route edges="26585732#5 23160151 24515741 183474717 -30064935#2 26586363#0 26586363#1 23157974#0 23157974#1 23157974#2 23157974#3 26586666#1 165332327#0 165332327#2 165332327#4 26586805#0 24582453"/>
    </vehicle>
    <vehicle id="veh24" type="veh_passenger" depart="147.57" departLane="best">
        <route edges="119086616#7 189585366 26586731#1 26586731#3 625566101 625562681#0 182069785#0 182069785#1 182069785#2 189536164#0 189536164#1 291166426#1 291166426#4 182069787#1 182069786#1 182069786#5 182069786#7 182069786#8 291166433#0 23361564#1 23361564#6 23361564#8 23361564#9 23361564#10 26646992#1 26646992#2 26646992#3 503384935#3 26646991#0 26646991#1"/>
    </vehicle>
    <vehicle id="veh25" type="veh_passenger" depart="153.72" departLane="best">
        <route edges="116388375#3 116388375#4 116388375#5 116388375#6 23169966 26647605#2 26647605#3 26647605#4 604385358#0 604385358#1 26585791#3 26585791#5 30064935#2 24515739#2 5117190#0 119086616#0 119086616#7 189585366 26586731#1 26586731#3 625566101 625562681#0 182069785#0 182069785#1 182069785#2 189536164#0 189536164#1 291166426#1 291166426#4 182069787#1 182069786#1 182069786#5 182069786#7 182069786#8 291166433#0 189536169#0 194261694#0 194261694#2 194261692 194261693#0 194261693#1 -625506881#0 -625506882#3 -625506882#0 283746975#1 180542447#0 180542447#1 180542447#3 180542447#5 180542447#6 23157811#1"/>
    </vehicle>
    <vehicle id="veh26" type="veh_passenger" depart="159.87" departLane="best" departSpeed="max">
        <route edges="8509046 61789106#1 8509044 25847879#0 25847879#1 25767069 23510383#0 23510383#1 23162842#0 23162842#1 23162842#3 182069806#0 182069806#1 182069806#2 182069806#3 182069806#4 182069800#0 182069800#1 621442431#1 603759585#0 182069786#5 182069786#7 182069786#8 291166433#0 189536169#0 194261694#0 194261694#2 194261692 194261693#0 194261693#1 -625506881#0 -625506882#3 -625506882#0 283746975#1 180542447#0 23458741#0 626732218#6 626732218#7 626732218#10 626732218#11 185675468#0 185675468#2 185675468#3 185675468#4 185675468#5 189689030 25860634"/>
    </vehicle>
    <vehicle id="veh27" type="veh_passenger" depart="166.02" departLane="best">
        <route edges="23653238#5 23361564#10 23361564#11 23361564#12 80036959#1 -180582572#1 187643366#1 -180582575#2 -180582575#1 23215342#0 187638464#0 187638464#2 636388334#0 636388334#1 636388334#2 625525185#1 625525185#2 625525186#0 625525186#1 625525186#3 625562662#1 625562662#5 625562662#9 625562662#12 625562662#16 625562662#17 625562662#18 625562662#19 625562662#21 625562679#1 625562679#2 625562679#3 291166430#0 26586639#0"/>
    </vehicle>
    <vehicle id="veh29" type="veh_passenger" depart="178.32" departLane="best">
        <route edges="180626333#1 180626333#2 180626333#3 23458717#0 23458717#1 26619969 185675468#5 189689030 189689028 25860630#8 25860630#10 25860630#13 25860630#15 25860630#18 189588564#2 189588564#3 189588564#4 189588562#2 458296950 626726210#0 180534498#1 194262658 626726212#2 625986823 605910148#1 605910148#2 -189215217"/>
    </vehicle>
    <vehicle id="veh30" type="veh_passenger" depart="184.47" departLane="best" departSpeed="max">
        <route edges="187673068#0 187673068#1 187673068#2 287478069 283591101#0 283591101#1 180368389#0 371964284#1 625506882#3 625506881#0 -194261693#1 -194261693#0 -194261692 -194261694#3 -194261694#1 -189536169#2 625525185#1 625525185#2 625525186#0 625525186#1 625525186#3 625562662#1 625562664#1 625562664#2 621442432 311929814#1 -182069806#4 -182069806#3 -182069806#2 -182069806#1 -182069806#0 182069791"/>
    </vehicle>
    <vehicle id="veh31" type="veh_passenger" depart="190.62" departLane="best">
        <route edges="180542447#3 180542447#5 180542447#6 23157811#1 115994002#0 178163877#1 23215342#0 187638464#0 187638464#2 636388334#0 636388334#1 636388334#2 625525185#1 625525185#2 625525186#0 625525186#1 625525186#3 625562662#1 625562664#1"/>
    </vehicle>
    <vehicle id="veh32" type="veh_passenger" depart="196.76" departLane="best">
        <route edges="26586363#0 26586363#1 23157974#0 23300063#0 23300063#1 23300063#2 26586731#3 625566101 625562681#0 182069785#0 182069785#1 182069785#2 189536164#0 189536164#1 291166426#1 291166426#4 182069787#1 182069786#1 182069786#5 182069786#7 182069786#8 291166433#0 189536169#0 194261694#0 194261694#2 194261692 26598747#0 26598747#1 -23160085#4 -23160085#3 23160085#3"/>
    </vehicle>
    <vehicle id="veh33" type="veh_passenger" depart="202.91" departLane="best">
        <route edges="625525186#0 625525186#1 625525186#3 625562662#1 625562662#5 625562662#9 625562662#12 625562662#16 26586943#0 26586943#1 -26586952#1 -26586952#0 -23169940#1 -23169940#0 23169940#0"/>
    </vehicle>
    <vehicle id="veh34" type="veh_passenger" depart="209.06" departLane="best">
        <route edges="182069806#2 182069806#3 182069806#4 182069800#0 182069800#1 621442431#1 603759585#0 182069786#5 182069786#7 182069786#8 291166433#0 189536169#0 194261694#0 194261694#2 194261692 194261693#0 194261693#1 -625506881#0 -625506882#3 -625506882#0 189588562#2 458296950 626726210#0 180534498#1 194262658 626726212#2 626726212#3 182031776 180680375#0 180680375#1"/>
    </vehicle>
    <vehicle id="veh35" type="veh_passenger" depart="215.21" departLane="best">
        <route edges="23815512#4 23157974#4 23157974#5 23157974#6 -625562680#2 -625562680#0 182069785#0 182069785#1 182069785#2 189536164#0 189536164#1 291166426#1 291166426#4 182069787#1 182069786#1 182069786#5 182069786#7"/>
    </vehicle>
    <vehicle id="veh36" type="veh_passenger" depart="221.36" departLane="best" departSpeed="max">
        <route edges="24515888 -23299997#1 24515863#1 24515863#2 24515863#3 26586257#0 26586731#1 26586731#3 625566101 625562681#0 182069785#0 182069785#1 182069785#2 189536164#0 189536164#1 291166426#1 291166426#4 182069787#1 625562664#1 625562664#2 621442432 311929814#1 -182069806#4 -182069806#3 -182069806#2 -182069806#1 -182069806#0 182069791 182069811#2 61129729#0 61129729#1 61129729#2"/>
    </vehicle>
    <vehicle id="veh37" type="veh_passenger" depart="227.51" departLane="best">
        <route edges="23157974#6 -625562680#2 -625562680#0 182069785#0 182069785#1 182069785#2 189536164#0 189536164#1 291166426#1 291166426#4 182069787#1 182069786#1 182069786#5 182069786#7 182069786#8 291166433#0 23361564#1 23361564#6 23361564#8 23361564#9 23361564#10 23361564#11 23361564#12 80036959#1 -180582572#1 180582572#0"/>
    </vehicle>
    <vehicle id="veh38" type="veh_passenger" depart="233.66" departLane="best">
        <route edges="85144005 185464347#2 126386653 23160146#0 23160146#1 23160146#2 23571274#0 23571274#1 448118528#1 61407901#0 625562662#9 625562662#12 625562662#16 625562662#17 625562662#18 625562662#19 625562662#21 182069785#0 182069785#1 182069785#2 189536164#0 23139651 23300015#0 23300015#1 23300015#2"/>
    </vehicle>
    <vehicle id="veh39" type="veh_passenger" depart="239.81" departLane="best">
        <route edges="-563668691#2 -563668691#1 23157971#1 23157971#2 23157971#3 23157971#4 23458659#0 23458659#1 26647234 166858044 23458658 604385358#0 604385358#1 26585791#3 26585791#5 30064935#2 24515739#2 5117190#0 119086616#0 119086616#7 189585366 26586731#1 291166430#3 291166430#4 185756569#0 185756569#1 185756569#2 25803468#0 25803468#1 25803468#4"/>
    </vehicle>
    <vehicle id="veh40" type="veh_passenger" depart="245.95" departLane="best">
        <route edges="324472806#1 -26433937#2 -26433937#1 -23165926#5 -23165926#4 -23165926#2 -23165926#0 23361564#1 23361564#6 23361564#8 23361564#9 23361564#10 23361564#11 23361564#12 80036959#1 182187278#0 604385374#1 604385374#2 604385373#0 604385373#1 427689121#0 427689121#1 23161864#0 23161864#1"/>
    </vehicle>
    <vehicle id="veh41" type="veh_passenger" depart="252.10" departLane="best">
        <route edges="-23300033#1 -23300033#0 -23300035#2 -23300035#1 26586943#1 -26586952#1 -26586952#0 23169946#2 625562678#4 624373905#0 624373905#1 165332323 23458636#0 23458636#1 26587170 23157970#1"/>
    </vehicle>
    <vehicle id="veh42" type="veh_passenger" depart="258.25" departLane="best">
        <route edges="8509116 193882608#0 23510383#6 -23174701#2 -26433937#2 -26433937#1 -23165926#5 -23165926#4 -23165926#2 -23165926#0 23361564#1 23361564#6 23361564#8 23361564#9 23361564#10 23361564#11"/>
    </vehicle>
    <vehicle id="veh43" type="veh_passenger" depart="264.40" departLane="best">
        <route edges="626732218#6 626732218#7 189678856#0 189678856#3 23157811#1 115994002#0 178163877#1 23215342#0 187638464#0 187638464#2 636388334#0 636388334#1 636388334#2 625525185#1 625525185#2 625525186#0 625525186#1 625525186#3 625562662#1 625562664#1 625562664#2 621442432 311929814#1 182069800#0 182069800#1 621442431#1 603759585#0"/>
    </vehicle>
    <vehicle id="veh44" type="veh_passenger" depart="270.55" departLane="best">
        <route edges="-180626333#1 -180626333#0 180626330 503244729#0 503244729#1 503244729#2 23164684#0 23164694#1 23215342#0 187638464#0 187638464#2 53212706#1 185675480#0 194261694#2 194261692 26598747#0 26598747#1 -23160085#4 -23160085#3 -23160085#2 26616546#0 26616546#1"/>
    </vehicle>
    <vehicle id="veh45" type="veh_passenger" depart="276.70" departLane="best">
        <route edges="-563668691#4 -171866552#1 23458684#0 23458684#1 23157971#2 23157971#3 23157971#4 23458659#0 23458659#1 26649267#6 23160146#0 23160146#1 23160146#2 23571274#0 23571274#1 448118528#1 61407901#0 625562662#9 625562662#12 625562662#16 625562662#17 625562662#18 625562662#19 625562662#21 182069785#0 182069785#1 182069785#2 189536164#0 23139651 26543938#0 26543938#1 23163004#4"/>
    </vehicle>
    <vehicle id="veh46" type="veh_passenger" depart="282.85" departLane="best">
        <route edges="604385374#1 -604385374#1 -182187278#0 -180582572#1 187643366#1 -180582575#2 -180582575#1 23215342#0 187638464#0 187638464#2 636388334#0 636388334#1 636388334#2 625525185#1 625525185#2 625525186#0 625525186#1 625525186#3 182069786#5 182069786#7"/>
    </vehicle>
    <vehicle id="veh47" type="veh_passenger" depart="289.00" departLane="best">
        <route edges="23300035#2 23300033#0 26586964 625562662#19 625562662#21 182069785#0 182069785#1 182069785#2 189536164#0 189536164#1 291166426#1 291166426#4 182069787#1 182069786#1 182069786#5 182069786#7 182069786#8 291166433#0 23361564#1 23361564#6 23361564#8 23361564#9 23361564#10 23361564#11 23361564#12 80036959#1 182187278#0 163984487#0 23300120 503244725#0 503244725#1 116016363#0 165332329"/>
    </vehicle>
    <vehicle id="veh48" type="veh_passenger" depart="295.15" departLane="best">
        <route edges="625525185#2 625525186#0 625525186#1 625525186#3 625562662#1 625562662#5 625562662#9 625562662#12 625562678#1 625562678#2 625562678#3 625562678#4 624373905#0 624373905#1 165332323 61129731#0 61129731#1 23170021#6 23170021#7 23170021#8 163984489#0 163984489#1 23157283#0 604385376#0 604385376#1 604385376#2 182198513#0 182198513#2 604385365"/>
    </vehicle>
    <vehicle id="veh49" type="veh_passenger" depart="301.29" departLane="best">
        <route edges="185675480#0 194261694#2 194261692 194261693#0 194261693#1 -625506881#0 -625506882#3 -625506882#0 283746975#1 180542447#0 23458741#0 626732218#6 626732218#7 626732218#10 626732218#11 185675468#0 185675468#2 185675468#3 185675468#4 185675468#5 189689030 189689028 25860630#8"/>
    </vehicle>
    <vehicle id="veh50" type="veh_passenger" depart="307.44" departLane="best">
        <route edges="25803468#1 25803468#4 23157974#0 23157974#1 23157974#2 23157974#3 26586666#1 165332327#0 165332327#2 165332327#4 111206601#1 26586831#0 26586831#1 165332322 182069804#0 165332328#1 240861039#1 23169959 116388375#2 116388375#3 116388375#4 116388375#5 116388375#6 116388375#7 116388375#8"/>
    </vehicle>
    <vehicle id="veh51" type="veh_passenger" depart="313.59" departLane="best">
        <route edges="291166426#1 625562662#12 625562678#1 625562678#2 625562678#3 625562678#4 624373905#0 624373905#1 165332323 61129731#0 61129731#1 23170021#6 23170021#7 23170021#8 163984489#0 163984489#1 182069803#3 166856386#1 23176477#0 23176477#1 171866552#0 23458684#0 23458684#1"/>
    </vehicle>
    <vehicle id="veh52" type="veh_passenger" depart="319.74" departLane="best">
        <route edges="30064936#1 26647605#1 26647605#2 26647605#3 26647605#4 604385358#0 604385358#1 26585791#3 26585791#5 30064935#2 24515739#2 5117190#0 119086616#0 119086616#7 189585366 26586731#1 26586731#3 625566101 625562681#0 182069785#0 182069785#1 182069785#2 189536164#0 189536164#1 291166426#1 291166426#4 182069787#1 182069786#1 182069786#5 182069786#7 182069786#8 291166433#0 23361564#1 23361564#6 23361564#8 23361564#9 23361564#10 23361564#11 23361564#12"/>
    </vehicle>
    <vehicle id="veh53" type="veh_passenger" depart="325.89" departLane="best">
        <route edges="-115994002#1 115994002#0 178163877#1 23215342#0 187638464#0 187638464#2 636388334#0 636388334#1 636388334#2 189536169#0"/>
    </vehicle>
    <vehicle id="veh54" type="veh_passenger" depart="332.04" departLane="best">
        <route edges="-182031776 605910148#0 605910148#1 605910148#2 180557128#1 221615627#2 626726211#0 626726211#1 287478069 283591101#0 283591101#1 180368389#0 371964284#1 625506882#3 625506881#0 -194261693#1 -194261693#0 -194261692 -194261694#3 -194261694#1 -189536169#2 625525185#1 625525185#2 625525186#0 625525186#1 625525186#3 625562662#1"/>
    </vehicle>
    <vehicle id="veh55" type="veh_passenger" depart="338.19" departLane="best">
        <route edges="604385376#0 -604385376#0 126386654#1 182069803#3 166856386#1 185464347#0 185464347#2 126386653 23160146#0 23160146#1 23160146#2 23571274#0 23571274#1 448118528#1 61407901#0 182069787#1 182069786#1 182069786#5 182069786#7 182069786#8 291166433#0 23361564#1 23361564#6 23597055#2 115507952#2 503384935#1 503384935#2"/>
    </vehicle>
    <vehicle id="veh56" type="veh_passenger" depart="344.34" departLane="best">
        <route edges="187643367#0 187643367#1 23164684#0 23164694#1 23215342#0 187638464#0 187638464#2 53212706#1 185675480#0 194261694#2 194261692 26598747#0 194261691 -23160085#5"/>
    </vehicle>
    <vehicle id="veh57" type="veh_passenger" depart="350.49" departLane="best">
        <route edges="604385374#2 -604385374#2 -604385374#1 163984487#0 23300120 503244725#0 503244725#1 116016363#0 111205409#1 111205409#2 111205409#3 23162617#0 23162617#1 448118528#0 448118528#1 26586939#0 625562678#3"/>
    </vehicle>
    <vehicle id="veh58" type="veh_passenger" depart="356.63" departLane="best">
        <route edges="-26586952#0 23169946#2 625562678#4 23571274#0 23571274#1 448118528#1 61407901#0 182069787#1 182069786#1 182069786#5 182069786#7 182069786#8 291166433#0 189536169#0 194261694#0 194261694#2 194261692 194261693#0 194261693#1 -625506881#0 -625506882#3 -625506882#0 283746975#1 180542447#0 180542447#1 180542447#3 180542447#5 180542447#6 23157811#1 115994002#0 23157812#0 23170764#0 23170764#2"/>
    </vehicle>
    <vehicle id="veh59" type="veh_passenger" depart="362.78" departLane="best">
        <route edges="-240861379#1 240861379#1 26649267#3 26649267#4 26649267#6 23160146#0 23160146#1 23160146#2 23571274#0 23571274#1 448118528#1 61407901#0 625562662#9 625562662#12 625562662#16 625562662#17 625562662#18 625562662#19 625562662#21 625562679#1 625562679#2 625562679#3 291166430#0"/>
    </vehicle>
    <vehicle id="veh60" type="veh_passenger" depart="368.93" departLane="best">
        <route edges="291166430#0 26586731#3 625566101 625562681#0 182069785#0 182069785#1 182069785#2 189536164#0 189536164#1 291166426#1 291166426#4 182069787#1 182069786#1 182069786#5 182069786#7 182069786#8 291166433#0 23361564#1 23361564#6 23361564#8 23361564#9 -625574151#2 -625574151#1"/>
    </vehicle>
    <vehicle id="veh61" type="veh_passenger" depart="375.08" departLane="best">
        <route edges="23170021#8 163984489#0 163984489#1 182069803#3 166856386#1 185464347#0 185464347#2 126386653 23160146#0 23160146#1 23160146#2 23571274#0 23571274#1 448118528#1 61407901#0 182069787#1 182069786#1 182069786#5 182069786#7 182069786#8 291166433#0 189536169#0 194261694#0 194261694#2 194261692 194261693#0 194261693#1 -625506881#0 -625506882#3 -625506882#0 283746975#1 180542447#0 23458741#0 23458741#1"/>
    </vehicle>
    <vehicle id="veh62" type="veh_passenger" depart="381.23" departLane="best">
        <route edges="182069806#2 182069806#3 182069806#4 182069800#0 182069800#1 621442431#1 603759585#0 182069786#5 182069786#7 182069786#8 291166433#0 23361564#1 23361564#6 23361564#8 23361564#9 23361564#10 23361564#11 23361564#12 80036959#1 182187278#0 604385374#1 604385374#2 604385373#0"/>
    </vehicle>
    <vehicle id="veh63" type="veh_passenger" depart="387.38" departLane="best">
        <route edges="23160146#2 23571274#0 23571274#1 448118528#1 61407901#0 182069787#1 182069786#1 182069786#5 182069786#7 182069786#8 291166433#0 189536169#0 194261694#0 194261694#2 194261692 194261693#0 194261693#1 -625506881#0 -625506882#3 -625506882#0 189588562#2 458296950 626726210#0 180557126#1"/>
    </vehicle>
    <vehicle id="veh64" type="veh_passenger" depart="393.53" departLane="best">
        <route edges="23510383#4 23510383#5 23510383#6 -23174701#2 -26433937#2 -26433937#1 -23165926#5 -23165926#4 -23165926#2 -23165926#0 23361564#1 23361564#6 23361564#8 23361564#9 23361564#10 26646992#1 26646992#2 26646992#3 503384935#3 26646991#0 26646991#1"/>
    </vehicle>
    <vehicle id="veh65" type="veh_passenger" depart="399.68" departLane="best">
        <route edges="8509115 8509116 193882608#0 23510383#6 -23174701#2 -26433937#2 -26433937#1 -23165926#5 -23165926#4 -23165926#2 -23165926#0 625525185#1 625525185#2 625525186#0 625525186#1 625525186#3 625562662#1 625562664#1 26543899 26543936 26543932"/>
    </vehicle>
    <vehicle id="veh66" type="veh_passenger" depart="405.83" departLane="best">
        <route edges="23164510#0 626732218#1 626732218#2 626732218#4 626732218#6 626732218#7 189678856#0 189678856#3 23157811#1 115994002#0 178163877#1 180582575#0 180582575#2 180582577#2 180582572#0 182187278#0 163984487#0 23300120"/>
    </vehicle>
    <vehicle id="veh67" type="veh_passenger" depart="411.97" departLane="best">
        <route edges="-604385373#1 -604385373#0 -604385374#2 -604385374#1 -182187278#0 -180582572#1 187643366#1 -180582575#2 -180582575#1 178163878#1 23157812#0 23170764#0 23170764#2 180626330"/>
    </vehicle>
    <vehicle id="veh68" type="veh_passenger" depart="418.12" departLane="best">