<?xml version="1.0" encoding="UTF-8"?>

<!-- generated on mer. 01 mai 2019 02:18:22 CEST by Eclipse SUMO GUI Version 1.1.0
<configuration xmlns:xsi="http://www.w3.org/2001/XMLSchema-instance" xsi:noNamespaceSchemaLocation="http://sumo.dlr.de/xsd/sumoConfiguration.xsd">

    <input>
        <net-file value="/usr/local/lib/python2.7/dist-packages/mininet_wifi-2.3-py2.7.egg/mn_wifi/sumo/data/osm.net.xml"/>
        <route-files value="/usr/local/lib/python2.7/dist-packages/mininet_wifi-2.3-py2.7.egg/mn_wifi/sumo/data/VIDEOFILE.xml"/>
        <additional-files value="/usr/local/lib/python2.7/dist-packages/mininet_wifi-2.3-py2.7.egg/mn_wifi/sumo/data/osm.poly.xml"/>
    </input>

    <output>
        <tripinfo-output value="/usr/local/lib/python2.7/dist-packages/mininet_wifi-2.3-py2.7.egg/mn_wifi/sumo/data/maptripinfo.out.xml"/>
    </output>

    <time>
        <begin value="0"/>
        <end value="1000"/>
        <step-length value="0.1"/>
    </time>

    <processing>
        <time-to-teleport value="100"/>
    </processing>

    <report>
        <xml-validation value="never"/>
        <no-step-log value="true"/>
    </report>

    <traci_server>
        <remote-port value="8814"/>
        <num-clients value="1"/>
    </traci_server>

    <gui_only>
        <gui-settings-file value="/usr/local/lib/python2.7/dist-packages/mininet_wifi-2.3-py2.7.egg/mn_wifi/sumo/data/osm.view.xml"/>
        <tracker-interval value="0.1"/>
    </gui_only>

</configuration>
